<?xml version="1.0" encoding="UTF-8"?>

<!-- generated on 2025-08-05 12:14:50 by Eclipse SUMO netconvert Version v1_22_0+1469-7f242b8e1f3
<netconvertConfiguration xmlns:xsi="http://www.w3.org/2001/XMLSchema-instance" xsi:noNamespaceSchemaLocation="http://sumo.dlr.de/xsd/netconvertConfiguration.xsd">

    <input>
        <sumo-net-file value="/Users/amirhosseinkiani/Documents/Github/FRITS-Backup/src/networks/4x4.net.xml"/>
    </input>

    <output>
        <plain-output-prefix value="/Users/amirhosseinkiani/Documents/Github/FRITS-Backup/src/networks/4x4_plain"/>
    </output>

    <processing>
        <geometry.min-radius.fix.railways value="false"/>
        <geometry.max-grade.fix value="false"/>
        <offset.disable-normalization value="true"/>
        <lefthand value="0"/>
    </processing>

    <junctions>
        <no-turnarounds value="true"/>
        <junctions.corner-detail value="0"/>
        <junctions.limit-turn-speed value="-1.00"/>
        <rectangular-lane-cut value="0"/>
    </junctions>

    <pedestrian>
        <walkingareas value="0"/>
    </pedestrian>

</netconvertConfiguration>
-->

<tlLogics version="1.20" xmlns:xsi="http://www.w3.org/2001/XMLSchema-instance" xsi:noNamespaceSchemaLocation="http://sumo.dlr.de/xsd/tllogic_file.xsd">
    <tlLogic id="0" type="static" programID="0" offset="0">
        <phase duration="42" state="GGGrrr"/>
        <phase duration="2"  state="yyyrrr"/>
        <phase duration="42" state="rrrGGG"/>
        <phase duration="2"  state="rrryyy"/>
    </tlLogic>
    <tlLogic id="1" type="static" programID="0" offset="0">
        <phase duration="42" state="GGGrrr"/>
        <phase duration="2"  state="yyyrrr"/>
        <phase duration="42" state="rrrGGG"/>
        <phase duration="2"  state="rrryyy"/>
    </tlLogic>
    <tlLogic id="10" type="static" programID="0" offset="0">
        <phase duration="42" state="GGGrrr"/>
        <phase duration="2"  state="yyyrrr"/>
        <phase duration="42" state="rrrGGG"/>
        <phase duration="2"  state="rrryyy"/>
    </tlLogic>
    <tlLogic id="10" type="static" programID="1" offset="0">
        <phase duration="42" state="GGGrrr"/>
        <phase duration="3"  state="yyyrrr"/>
        <phase duration="42" state="rrrGGG"/>
        <phase duration="3"  state="rrryyy"/>
    </tlLogic>
    <tlLogic id="11" type="static" programID="0" offset="0">
        <phase duration="42" state="GGGrrr"/>
        <phase duration="2"  state="yyyrrr"/>
        <phase duration="42" state="rrrGGG"/>
        <phase duration="2"  state="rrryyy"/>
    </tlLogic>
    <tlLogic id="12" type="static" programID="0" offset="0">
        <phase duration="42" state="GGGrrr"/>
        <phase duration="2"  state="yyyrrr"/>
        <phase duration="42" state="rrrGGG"/>
        <phase duration="2"  state="rrryyy"/>
    </tlLogic>
    <tlLogic id="13" type="static" programID="0" offset="0">
        <phase duration="42" state="GGGrrr"/>
        <phase duration="2"  state="yyyrrr"/>
        <phase duration="42" state="rrrGGG"/>
        <phase duration="2"  state="rrryyy"/>
    </tlLogic>
    <tlLogic id="14" type="static" programID="0" offset="0">
        <phase duration="42" state="GGGrrr"/>
        <phase duration="2"  state="yyyrrr"/>
        <phase duration="42" state="rrrGGG"/>
        <phase duration="2"  state="rrryyy"/>
    </tlLogic>
    <tlLogic id="15" type="static" programID="0" offset="0">
        <phase duration="42" state="GGGrrr"/>
        <phase duration="2"  state="yyyrrr"/>
        <phase duration="42" state="rrrGGG"/>
        <phase duration="2"  state="rrryyy"/>
    </tlLogic>
    <tlLogic id="2" type="static" programID="0" offset="0">
        <phase duration="42" state="GGGrrr"/>
        <phase duration="2"  state="yyyrrr"/>
        <phase duration="42" state="rrrGGG"/>
        <phase duration="2"  state="rrryyy"/>
    </tlLogic>
    <tlLogic id="3" type="static" programID="0" offset="0">
        <phase duration="42" state="GGGrrr"/>
        <phase duration="2"  state="yyyrrr"/>
        <phase duration="42" state="rrrGGG"/>
        <phase duration="2"  state="rrryyy"/>
    </tlLogic>
    <tlLogic id="4" type="static" programID="0" offset="0">
        <phase duration="42" state="GGGrrr"/>
        <phase duration="2"  state="yyyrrr"/>
        <phase duration="42" state="rrrGGG"/>
        <phase duration="2"  state="rrryyy"/>
    </tlLogic>
    <tlLogic id="5" type="static" programID="0" offset="0">
        <phase duration="42" state="GGGrrr"/>
        <phase duration="2"  state="yyyrrr"/>
        <phase duration="42" state="rrrGGG"/>
        <phase duration="2"  state="rrryyy"/>
    </tlLogic>
    <tlLogic id="6" type="static" programID="0" offset="0">
        <phase duration="42" state="GGGrrr"/>
        <phase duration="2"  state="yyyrrr"/>
        <phase duration="42" state="rrrGGG"/>
        <phase duration="2"  state="rrryyy"/>
    </tlLogic>
    <tlLogic id="7" type="static" programID="0" offset="0">
        <phase duration="42" state="GGGrrr"/>
        <phase duration="2"  state="yyyrrr"/>
        <phase duration="42" state="rrrGGG"/>
        <phase duration="2"  state="rrryyy"/>
    </tlLogic>
    <tlLogic id="8" type="static" programID="0" offset="0">
        <phase duration="42" state="GGGrrr"/>
        <phase duration="2"  state="yyyrrr"/>
        <phase duration="42" state="rrrGGG"/>
        <phase duration="2"  state="rrryyy"/>
    </tlLogic>
    <tlLogic id="9" type="static" programID="0" offset="0">
        <phase duration="42" state="GGGrrr"/>
        <phase duration="2"  state="yyyrrr"/>
        <phase duration="42" state="rrrGGG"/>
        <phase duration="2"  state="rrryyy"/>
    </tlLogic>

    <connection from="0to1" to="1to5" fromLane="0" toLane="0" tl="1" linkIndex="3"/>
    <connection from="0to1" to="1to2" fromLane="0" toLane="0" tl="1" linkIndex="4"/>
    <connection from="0to1" to="1to2" fromLane="1" toLane="1" tl="1" linkIndex="5"/>
    <connection from="0to4" to="4to8" fromLane="0" toLane="0" tl="4" linkIndex="0"/>
    <connection from="0to4" to="4to8" fromLane="1" toLane="1" tl="4" linkIndex="1"/>
    <connection from="0to4" to="4to5" fromLane="1" toLane="1" tl="4" linkIndex="2"/>
    <connection from="10to11" to="11to15" fromLane="0" toLane="0" tl="11" linkIndex="3"/>
    <connection from="10to11" to="11to30" fromLane="0" toLane="0" tl="11" linkIndex="4"/>
    <connection from="10to11" to="11to30" fromLane="1" toLane="1" tl="11" linkIndex="5"/>
    <connection from="10to14" to="14to26" fromLane="0" toLane="0" tl="14" linkIndex="0"/>
    <connection from="10to14" to="14to26" fromLane="1" toLane="1" tl="14" linkIndex="1"/>
    <connection from="10to14" to="14to15" fromLane="1" toLane="1" tl="14" linkIndex="2"/>
    <connection from="11to15" to="15to27" fromLane="0" toLane="0" tl="15" linkIndex="0"/>
    <connection from="11to15" to="15to27" fromLane="1" toLane="1" tl="15" linkIndex="1"/>
    <connection from="11to15" to="15to31" fromLane="1" toLane="1" tl="15" linkIndex="2"/>
    <connection from="12to13" to="13to25" fromLane="0" toLane="0" tl="13" linkIndex="3"/>
    <connection from="12to13" to="13to14" fromLane="0" toLane="0" tl="13" linkIndex="4"/>
    <connection from="12to13" to="13to14" fromLane="1" toLane="1" tl="13" linkIndex="5"/>
    <connection from="13to14" to="14to26" fromLane="0" toLane="0" tl="14" linkIndex="3"/>
    <connection from="13to14" to="14to15" fromLane="0" toLane="0" tl="14" linkIndex="4"/>
    <connection from="13to14" to="14to15" fromLane="1" toLane="1" tl="14" linkIndex="5"/>
    <connection from="14to15" to="15to27" fromLane="0" toLane="0" tl="15" linkIndex="3"/>
    <connection from="14to15" to="15to31" fromLane="0" toLane="0" tl="15" linkIndex="4"/>
    <connection from="14to15" to="15to31" fromLane="1" toLane="1" tl="15" linkIndex="5"/>
    <connection from="16to0" to="0to4" fromLane="0" toLane="0" tl="0" linkIndex="0"/>
    <connection from="16to0" to="0to4" fromLane="1" toLane="1" tl="0" linkIndex="1"/>
    <connection from="16to0" to="0to1" fromLane="1" toLane="1" tl="0" linkIndex="2"/>
    <connection from="17to1" to="1to5" fromLane="0" toLane="0" tl="1" linkIndex="0"/>
    <connection from="17to1" to="1to5" fromLane="1" toLane="1" tl="1" linkIndex="1"/>
    <connection from="17to1" to="1to2" fromLane="1" toLane="1" tl="1" linkIndex="2"/>
    <connection from="18to2" to="2to6" fromLane="0" toLane="0" tl="2" linkIndex="0"/>
    <connection from="18to2" to="2to6" fromLane="1" toLane="1" tl="2" linkIndex="1"/>
    <connection from="18to2" to="2to3" fromLane="1" toLane="1" tl="2" linkIndex="2"/>
    <connection from="19to3" to="3to7" fromLane="0" toLane="0" tl="3" linkIndex="0"/>
    <connection from="19to3" to="3to7" fromLane="1" toLane="1" tl="3" linkIndex="1"/>
    <connection from="19to3" to="3to28" fromLane="1" toLane="1" tl="3" linkIndex="2"/>
    <connection from="1to2" to="2to6" fromLane="0" toLane="0" tl="2" linkIndex="3"/>
    <connection from="1to2" to="2to3" fromLane="0" toLane="0" tl="2" linkIndex="4"/>
    <connection from="1to2" to="2to3" fromLane="1" toLane="1" tl="2" linkIndex="5"/>
    <connection from="1to5" to="5to9" fromLane="0" toLane="0" tl="5" linkIndex="0"/>
    <connection from="1to5" to="5to9" fromLane="1" toLane="1" tl="5" linkIndex="1"/>
    <connection from="1to5" to="5to6" fromLane="1" toLane="1" tl="5" linkIndex="2"/>
    <connection from="20to0" to="0to4" fromLane="0" toLane="0" tl="0" linkIndex="3"/>
    <connection from="20to0" to="0to1" fromLane="0" toLane="0" tl="0" linkIndex="4"/>
    <connection from="20to0" to="0to1" fromLane="1" toLane="1" tl="0" linkIndex="5"/>
    <connection from="21to4" to="4to8" fromLane="0" toLane="0" tl="4" linkIndex="3"/>
    <connection from="21to4" to="4to5" fromLane="0" toLane="0" tl="4" linkIndex="4"/>
    <connection from="21to4" to="4to5" fromLane="1" toLane="1" tl="4" linkIndex="5"/>
    <connection from="22to8" to="8to12" fromLane="0" toLane="0" tl="8" linkIndex="3"/>
    <connection from="22to8" to="8to9" fromLane="0" toLane="0" tl="8" linkIndex="4"/>
    <connection from="22to8" to="8to9" fromLane="1" toLane="1" tl="8" linkIndex="5"/>
    <connection from="23to12" to="12to24" fromLane="0" toLane="0" tl="12" linkIndex="3"/>
    <connection from="23to12" to="12to13" fromLane="0" toLane="0" tl="12" linkIndex="4"/>
    <connection from="23to12" to="12to13" fromLane="1" toLane="1" tl="12" linkIndex="5"/>
    <connection from="2to3" to="3to7" fromLane="0" toLane="0" tl="3" linkIndex="3"/>
    <connection from="2to3" to="3to28" fromLane="0" toLane="0" tl="3" linkIndex="4"/>
    <connection from="2to3" to="3to28" fromLane="1" toLane="1" tl="3" linkIndex="5"/>
    <connection from="2to6" to="6to10" fromLane="0" toLane="0" tl="6" linkIndex="0"/>
    <connection from="2to6" to="6to10" fromLane="1" toLane="1" tl="6" linkIndex="1"/>
    <connection from="2to6" to="6to7" fromLane="1" toLane="1" tl="6" linkIndex="2"/>
    <connection from="3to7" to="7to11" fromLane="0" toLane="0" tl="7" linkIndex="0"/>
    <connection from="3to7" to="7to11" fromLane="1" toLane="1" tl="7" linkIndex="1"/>
    <connection from="3to7" to="7to29" fromLane="1" toLane="1" tl="7" linkIndex="2"/>
    <connection from="4to5" to="5to9" fromLane="0" toLane="0" tl="5" linkIndex="3"/>
    <connection from="4to5" to="5to6" fromLane="0" toLane="0" tl="5" linkIndex="4"/>
    <connection from="4to5" to="5to6" fromLane="1" toLane="1" tl="5" linkIndex="5"/>
    <connection from="4to8" to="8to12" fromLane="0" toLane="0" tl="8" linkIndex="0"/>
    <connection from="4to8" to="8to12" fromLane="1" toLane="1" tl="8" linkIndex="1"/>
    <connection from="4to8" to="8to9" fromLane="1" toLane="1" tl="8" linkIndex="2"/>
    <connection from="5to6" to="6to10" fromLane="0" toLane="0" tl="6" linkIndex="3"/>
    <connection from="5to6" to="6to7" fromLane="0" toLane="0" tl="6" linkIndex="4"/>
    <connection from="5to6" to="6to7" fromLane="1" toLane="1" tl="6" linkIndex="5"/>
    <connection from="5to9" to="9to13" fromLane="0" toLane="0" tl="9" linkIndex="0"/>
    <connection from="5to9" to="9to13" fromLane="1" toLane="1" tl="9" linkIndex="1"/>
    <connection from="5to9" to="9to10" fromLane="1" toLane="1" tl="9" linkIndex="2"/>
    <connection from="6to10" to="10to14" fromLane="0" toLane="0" tl="10" linkIndex="0"/>
    <connection from="6to10" to="10to14" fromLane="1" toLane="1" tl="10" linkIndex="1"/>
    <connection from="6to10" to="10to11" fromLane="1" toLane="1" tl="10" linkIndex="2"/>
    <connection from="6to7" to="7to11" fromLane="0" toLane="0" tl="7" linkIndex="3"/>
    <connection from="6to7" to="7to29" fromLane="0" toLane="0" tl="7" linkIndex="4"/>
    <connection from="6to7" to="7to29" fromLane="1" toLane="1" tl="7" linkIndex="5"/>
    <connection from="7to11" to="11to15" fromLane="0" toLane="0" tl="11" linkIndex="0"/>
    <connection from="7to11" to="11to15" fromLane="1" toLane="1" tl="11" linkIndex="1"/>
    <connection from="7to11" to="11to30" fromLane="1" toLane="1" tl="11" linkIndex="2"/>
    <connection from="8to12" to="12to24" fromLane="0" toLane="0" tl="12" linkIndex="0"/>
    <connection from="8to12" to="12to24" fromLane="1" toLane="1" tl="12" linkIndex="1"/>
    <connection from="8to12" to="12to13" fromLane="1" toLane="1" tl="12" linkIndex="2"/>
    <connection from="8to9" to="9to13" fromLane="0" toLane="0" tl="9" linkIndex="3"/>
    <connection from="8to9" to="9to10" fromLane="0" toLane="0" tl="9" linkIndex="4"/>
    <connection from="8to9" to="9to10" fromLane="1" toLane="1" tl="9" linkIndex="5"/>
    <connection from="9to10" to="10to14" fromLane="0" toLane="0" tl="10" linkIndex="3"/>
    <connection from="9to10" to="10to11" fromLane="0" toLane="0" tl="10" linkIndex="4"/>
    <connection from="9to10" to="10to11" fromLane="1" toLane="1" tl="10" linkIndex="5"/>
    <connection from="9to13" to="13to25" fromLane="0" toLane="0" tl="13" linkIndex="0"/>
    <connection from="9to13" to="13to25" fromLane="1" toLane="1" tl="13" linkIndex="1"/>
    <connection from="9to13" to="13to14" fromLane="1" toLane="1" tl="13" linkIndex="2"/>
</tlLogics>
