<?xml version="1.0" encoding="UTF-8"?>

<!-- generated on 2023-11-08 11:48:58 by Eclipse SUMO netedit Version v1_18_0+1966-98f357ff311
<configuration xmlns:xsi="http://www.w3.org/2001/XMLSchema-instance" xsi:noNamespaceSchemaLocation="http://sumo.dlr.de/xsd/neteditConfiguration.xsd">

    <input>
        <sumocfg-file value="/Users/kiani014/Documents/Github/FRITS2/Afternoon_Hennepin_Test.sumocfg"/>
        <route-files value="/Users/kiani014/Documents/Github/FRITS2/input_efficiency/MP_mndot_data/mp/i4/rou/d_6_turnCount_pm_offpeak_2.rou.xml"/>
        <sumo-net-file value="/Users/kiani014/Documents/Github/FRITS2/input_efficiency/MP_mndot_data/mp/i4/i4_new.net.xml"/>
    </input>

    <output>
        <output-file value="/Users/kiani014/Documents/Github/FRITS2/input_efficiency/MP_mndot_data/mp/i4/i4_new.net.xml"/>
        <output.street-names value="true"/>
    </output>

    <processing>
        <geometry.min-radius.fix.railways value="false"/>
        <geometry.max-grade.fix value="false"/>
        <offset.disable-normalization value="true"/>
        <lefthand value="0"/>
    </processing>

    <junctions>
        <no-turnarounds value="true"/>
        <junctions.corner-detail value="5"/>
        <junctions.limit-turn-speed value="5.50"/>
        <rectangular-lane-cut value="0"/>
    </junctions>

    <pedestrian>
        <walkingareas value="0"/>
    </pedestrian>

</configuration>
-->

<net version="1.16" junctionCornerDetail="5" limitTurnSpeed="5.50" xmlns:xsi="http://www.w3.org/2001/XMLSchema-instance" xsi:noNamespaceSchemaLocation="http://sumo.dlr.de/xsd/net_file.xsd">

    <location netOffset="-450011.54,-4996025.65" convBoundary="8628.46,930.16,11243.17,2012.33" origBoundary="-93.635696,45.109217,-93.481704,45.152564" projParameter="+proj=utm +zone=15 +ellps=WGS84 +datum=WGS84 +units=m +no_defs"/>

    <type id="highway.residential" priority="3" numLanes="1" speed="13.89" disallow="tram rail_urban rail rail_electric rail_fast ship" oneway="1"/>
    <type id="highway.secondary" priority="11" numLanes="1" speed="27.78" disallow="tram rail_urban rail rail_electric rail_fast ship" oneway="1"/>

    <edge id=":gneJ1_0" function="internal">
        <lane id=":gneJ1_0_0" index="0" disallow="tram rail_urban rail rail_electric rail_fast ship" speed="22.35" length="0.30" shape="9790.26,1603.41 9790.55,1603.37"/>
        <lane id=":gneJ1_0_1" index="1" disallow="tram rail_urban rail rail_electric rail_fast ship" speed="22.35" length="0.30" shape="9790.77,1606.57 9791.06,1606.53"/>
    </edge>
    <edge id=":gneJ2_0" function="internal">
        <lane id=":gneJ2_0_0" index="0" disallow="tram rail_urban rail rail_electric rail_fast ship" speed="22.35" length="0.10" shape="10306.60,1326.08 10306.60,1326.08"/>
        <lane id=":gneJ2_0_1" index="1" disallow="tram rail_urban rail rail_electric rail_fast ship" speed="22.35" length="0.10" shape="10304.98,1323.32 10304.98,1323.32"/>
    </edge>
    <edge id=":gneJ3_0" function="internal">
        <lane id=":gneJ3_0_0" index="0" disallow="tram rail_urban rail rail_electric rail_fast ship" speed="13.41" length="0.23" shape="9659.85,1719.40 9659.90,1719.45 9659.94,1719.48 9659.97,1719.51 9660.01,1719.57"/>
    </edge>
    <edge id=":gneJ4_0" function="internal">
        <lane id=":gneJ4_0_0" index="0" disallow="tram rail_urban rail rail_electric rail_fast ship" speed="20.12" length="0.30" shape="10719.30,1142.63 10719.61,1142.66"/>
        <lane id=":gneJ4_0_1" index="1" disallow="tram rail_urban rail rail_electric rail_fast ship" speed="20.12" length="0.30" shape="10719.04,1145.82 10719.33,1145.85"/>
    </edge>
    <edge id=":gneJ5_0" function="internal">
        <lane id=":gneJ5_0_0" index="0" disallow="tram rail_urban rail rail_electric rail_fast ship" speed="13.41" length="0.10" shape="11013.16,1055.69 11013.16,1055.69"/>
        <lane id=":gneJ5_0_1" index="1" disallow="tram rail_urban rail rail_electric rail_fast ship" speed="13.41" length="0.10" shape="11016.36,1055.65 11016.36,1055.65"/>
    </edge>
    <edge id=":gneJ6_0" function="internal">
        <lane id=":gneJ6_0_0" index="0" disallow="tram rail_urban rail rail_electric rail_fast ship" speed="13.41" length="0.10" shape="11024.52,1356.67 11024.52,1356.67"/>
    </edge>
    <edge id=":gneJ7_0" function="internal">
        <lane id=":gneJ7_0_0" index="0" disallow="tram rail_urban rail rail_electric rail_fast ship" speed="20.12" length="0.10" shape="10796.39,1174.93 10796.48,1174.95"/>
        <lane id=":gneJ7_0_1" index="1" disallow="tram rail_urban rail rail_electric rail_fast ship" speed="20.12" length="0.10" shape="10797.41,1171.89 10797.32,1171.87"/>
    </edge>
    <edge id=":gneJ8_0" function="internal">
        <lane id=":gneJ8_0_0" index="0" disallow="tram rail_urban rail rail_electric rail_fast ship" speed="13.41" length="0.10" shape="9678.16,1805.28 9678.16,1805.28"/>
    </edge>
    <edge id=":gneJ9_0" function="internal">
        <lane id=":gneJ9_0_0" index="0" speed="22.35" length="8.14" shape="9015.83,1624.95 9013.46,1625.13 9011.88,1625.65 9010.29,1626.20 9007.92,1626.47"/>
        <lane id=":gneJ9_0_1" index="1" speed="22.35" length="8.14" shape="9015.83,1624.95 9013.45,1624.63 9011.86,1624.05 9010.27,1623.50 9007.89,1623.27"/>
    </edge>
    <edge id=":i_cr30_101_0" function="internal">
        <lane id=":i_cr30_101_0_0" index="0" speed="22.35" length="19.52" shape="8939.27,1626.31 8919.80,1624.82"/>
    </edge>
    <edge id=":i_cr30_101_1" function="internal">
        <lane id=":i_cr30_101_1_0" index="0" speed="9.64" length="20.63" shape="8939.28,1623.11 8933.53,1622.22 8929.41,1619.83 8926.93,1615.95 8926.07,1610.58"/>
    </edge>
    <edge id=":i_cr30_101_2" function="internal">
        <lane id=":i_cr30_101_2_0" index="0" speed="22.35" length="19.89" shape="8933.62,1612.05 8933.24,1631.93"/>
    </edge>
    <edge id=":i_cr30_101_3" function="internal">
        <lane id=":i_cr30_101_3_0" index="0" speed="9.10" length="18.93" shape="8930.42,1612.12 8929.86,1617.66 8927.90,1621.63 8924.55,1624.02 8919.80,1624.82"/>
    </edge>
    <edge id=":i_cr30_101_4" function="internal">
        <lane id=":i_cr30_101_4_0" index="0" speed="7.39" length="12.03" shape="8917.68,1617.04 8921.37,1616.64 8923.99,1615.42 8925.56,1613.41 8926.07,1610.58"/>
    </edge>
    <edge id=":i_cr30_101_5" function="internal">
        <lane id=":i_cr30_101_5_0" index="0" speed="22.35" length="21.62" shape="8917.68,1617.04 8939.30,1617.63"/>
    </edge>
    <edge id=":i_cr30_101_6" function="internal">
        <lane id=":i_cr30_101_6_0" index="0" speed="9.72" length="21.30" shape="8918.55,1620.24 8924.95,1620.97 8929.52,1623.16 8932.29,1626.82 8933.24,1631.93"/>
    </edge>
    <edge id=":i_cr30_101_7" function="internal">
        <lane id=":i_cr30_101_7_0" index="0" speed="7.12" length="11.08" shape="8925.81,1632.49 8925.45,1629.13 8924.32,1626.73 8922.44,1625.29 8919.80,1624.82"/>
    </edge>
    <edge id=":i_cr30_101_8" function="internal">
        <lane id=":i_cr30_101_8_0" index="0" speed="22.35" length="21.91" shape="8925.81,1632.49 8926.07,1610.58"/>
    </edge>
    <edge id=":i_cr30_101_9" function="internal">
        <lane id=":i_cr30_101_9_0" index="0" speed="9.45" length="20.19" shape="8929.01,1632.25 8929.68,1625.84 8931.61,1621.27 8934.82,1618.53 8939.30,1617.63"/>
    </edge>
    <edge id=":i_cr30_gln_0" function="internal">
        <lane id=":i_cr30_gln_0_0" index="0" disallow="tram rail_urban rail rail_electric rail_fast ship" speed="6.81" length="10.18" shape="11013.34,1209.99 11012.97,1206.92 11011.91,1204.75 11010.14,1203.48 11007.67,1203.11"/>
        <lane id=":i_cr30_gln_0_1" index="1" disallow="tram rail_urban rail rail_electric rail_fast ship" speed="7.62" length="12.99" shape="11013.34,1209.99 11012.96,1205.52 11011.88,1202.35 11010.08,1200.48 11007.58,1199.91"/>
    </edge>
    <edge id=":i_cr30_gln_2" function="internal">
        <lane id=":i_cr30_gln_2_0" index="0" disallow="tram rail_urban rail rail_electric rail_fast ship" speed="13.41" length="33.52" shape="11016.54,1209.96 11014.60,1176.50"/>
        <lane id=":i_cr30_gln_2_1" index="1" disallow="tram rail_urban rail rail_electric rail_fast ship" speed="13.41" length="33.52" shape="11016.54,1209.96 11017.80,1176.46"/>
    </edge>
    <edge id=":i_cr30_gln_4" function="internal">
        <lane id=":i_cr30_gln_4_0" index="0" disallow="tram rail_urban rail rail_electric rail_fast ship" speed="11.78" length="13.30" shape="11019.74,1209.93 11020.59,1199.26 11021.44,1196.82"/>
        <lane id=":i_cr30_gln_4_1" index="1" disallow="tram rail_urban rail rail_electric rail_fast ship" speed="11.28" length="11.26" shape="11019.74,1209.93 11020.60,1200.66 11021.32,1198.86"/>
    </edge>
    <edge id=":i_cr30_gln_21" function="internal">
        <lane id=":i_cr30_gln_21_0" index="0" disallow="tram rail_urban rail rail_electric rail_fast ship" speed="11.78" length="18.46" shape="11021.44,1196.82 11023.26,1191.60 11027.73,1186.96 11034.01,1185.35"/>
    </edge>
    <edge id=":i_cr30_gln_22" function="internal">
        <lane id=":i_cr30_gln_22_0" index="0" disallow="tram rail_urban rail rail_electric rail_fast ship" speed="11.28" length="17.73" shape="11021.32,1198.86 11023.27,1194.00 11027.76,1189.96 11034.06,1188.55"/>
    </edge>
    <edge id=":i_cr30_gln_6" function="internal">
        <lane id=":i_cr30_gln_6_0" index="0" disallow="tram rail_urban rail rail_electric rail_fast ship" speed="7.88" length="13.73" shape="11034.29,1204.21 11029.45,1204.60 11025.99,1205.68 11023.93,1207.45 11023.26,1209.90"/>
    </edge>
    <edge id=":i_cr30_gln_7" function="internal">
        <lane id=":i_cr30_gln_7_0" index="0" disallow="tram rail_urban rail rail_electric rail_fast ship" speed="19.00" length="26.67" shape="11034.24,1201.02 11007.67,1203.11"/>
        <lane id=":i_cr30_gln_7_1" index="1" disallow="tram rail_urban rail rail_electric rail_fast ship" speed="19.00" length="26.67" shape="11034.19,1197.82 11007.58,1199.91"/>
    </edge>
    <edge id=":i_cr30_gln_9" function="internal">
        <lane id=":i_cr30_gln_9_0" index="0" disallow="tram rail_urban rail rail_electric rail_fast ship" speed="11.50" length="13.27" shape="11034.15,1194.62 11025.68,1193.54 11021.54,1191.24"/>
        <lane id=":i_cr30_gln_9_1" index="1" disallow="tram rail_urban rail rail_electric rail_fast ship" speed="11.03" length="11.29" shape="11034.15,1194.62 11027.08,1193.53 11023.64,1191.23"/>
    </edge>
    <edge id=":i_cr30_gln_23" function="internal">
        <lane id=":i_cr30_gln_23_0" index="0" disallow="tram rail_urban rail rail_electric rail_fast ship" speed="11.50" length="17.09" shape="11021.54,1191.24 11019.60,1190.16 11015.91,1184.48 11014.60,1176.50"/>
    </edge>
    <edge id=":i_cr30_gln_24" function="internal">
        <lane id=":i_cr30_gln_24_0" index="0" disallow="tram rail_urban rail rail_electric rail_fast ship" speed="11.03" length="16.51" shape="11023.64,1191.23 11022.00,1190.14 11018.91,1184.45 11017.80,1176.46"/>
    </edge>
    <edge id=":i_cr30_gln_11" function="internal">
        <lane id=":i_cr30_gln_11_0" index="0" disallow="tram rail_urban rail rail_electric rail_fast ship" speed="7.40" length="11.98" shape="11028.28,1176.33 11028.69,1180.31 11029.78,1183.14 11031.56,1184.82 11034.01,1185.35"/>
        <lane id=":i_cr30_gln_11_1" index="1" disallow="tram rail_urban rail rail_electric rail_fast ship" speed="8.17" length="14.84" shape="11028.28,1176.33 11028.71,1181.71 11029.82,1185.53 11031.60,1187.81 11034.06,1188.55"/>
    </edge>
    <edge id=":i_cr30_gln_13" function="internal">
        <lane id=":i_cr30_gln_13_0" index="0" disallow="tram rail_urban rail rail_electric rail_fast ship" speed="13.41" length="33.58" shape="11025.08,1176.37 11023.26,1209.90"/>
    </edge>
    <edge id=":i_cr30_gln_14" function="internal">
        <lane id=":i_cr30_gln_14_0" index="0" disallow="tram rail_urban rail rail_electric rail_fast ship" speed="12.13" length="16.25" shape="11021.88,1176.41 11021.14,1187.94 11019.73,1192.42"/>
        <lane id=":i_cr30_gln_14_1" index="1" disallow="tram rail_urban rail rail_electric rail_fast ship" speed="11.63" length="13.96" shape="11021.88,1176.41 11021.12,1186.54 11019.82,1190.12"/>
    </edge>
    <edge id=":i_cr30_gln_25" function="internal">
        <lane id=":i_cr30_gln_25_0" index="0" disallow="tram rail_urban rail rail_electric rail_fast ship" speed="12.13" length="17.38" shape="11019.73,1192.42 11018.52,1196.23 11014.03,1201.29 11007.67,1203.11"/>
    </edge>
    <edge id=":i_cr30_gln_26" function="internal">
        <lane id=":i_cr30_gln_26_0" index="0" disallow="tram rail_urban rail rail_electric rail_fast ship" speed="11.63" length="16.88" shape="11019.82,1190.12 11018.48,1193.83 11013.97,1198.29 11007.58,1199.91"/>
    </edge>
    <edge id=":i_cr30_gln_16" function="internal">
        <lane id=":i_cr30_gln_16_0" index="0" disallow="tram rail_urban rail rail_electric rail_fast ship" speed="7.15" length="10.75" shape="11007.10,1182.45 11010.41,1181.92 11012.76,1180.75 11014.16,1178.94 11014.60,1176.50"/>
        <lane id=":i_cr30_gln_16_1" index="1" disallow="tram rail_urban rail rail_electric rail_fast ship" speed="7.94" length="13.48" shape="11007.10,1182.45 11011.81,1181.85 11015.16,1180.65 11017.16,1178.86 11017.80,1176.46"/>
    </edge>
    <edge id=":i_cr30_gln_18" function="internal">
        <lane id=":i_cr30_gln_18_0" index="0" disallow="tram rail_urban rail rail_electric rail_fast ship" speed="19.00" length="26.81" shape="11007.19,1185.65 11034.01,1185.35"/>
        <lane id=":i_cr30_gln_18_1" index="1" disallow="tram rail_urban rail rail_electric rail_fast ship" speed="19.00" length="26.81" shape="11007.28,1188.85 11034.06,1188.55"/>
    </edge>
    <edge id=":i_cr30_gln_20" function="internal">
        <lane id=":i_cr30_gln_20_0" index="0" disallow="tram rail_urban rail rail_electric rail_fast ship" speed="10.76" length="27.49" shape="11007.37,1192.05 11014.26,1192.84 11019.21,1196.08 11022.21,1201.76 11023.26,1209.90"/>
    </edge>
    <edge id=":i_cr30_lln_0" function="internal">
        <lane id=":i_cr30_lln_0_0" index="0" disallow="tram rail_urban rail rail_electric rail_fast ship" speed="5.96" length="10.33" shape="10489.07,1218.71 10488.56,1215.31 10487.37,1213.39 10485.52,1212.97 10483.00,1214.03"/>
        <lane id=":i_cr30_lln_0_1" index="1" disallow="tram rail_urban rail rail_electric rail_fast ship" speed="6.87" length="14.21" shape="10489.07,1218.71 10488.39,1213.76 10486.87,1210.87 10484.50,1210.06 10481.29,1211.32"/>
    </edge>
    <edge id=":i_cr30_lln_2" function="internal">
        <lane id=":i_cr30_lln_2_0" index="0" speed="15.64" length="34.89" shape="10489.07,1218.71 10489.20,1209.76 10489.89,1199.42 10490.63,1190.03 10490.90,1183.88"/>
    </edge>
    <edge id=":i_cr30_lln_3" function="internal">
        <lane id=":i_cr30_lln_3_0" index="0" disallow="tram rail_urban rail rail_electric rail_fast ship" speed="14.58" length="17.54" shape="10492.27,1218.54 10492.63,1208.02 10494.31,1201.21"/>
        <lane id=":i_cr30_lln_3_1" index="1" disallow="tram rail_urban rail rail_electric rail_fast ship" speed="14.15" length="13.02" shape="10492.27,1218.54 10492.77,1209.52 10493.98,1205.72"/>
    </edge>
    <edge id=":i_cr30_lln_18" function="internal">
        <lane id=":i_cr30_lln_18_0" index="0" disallow="tram rail_urban rail rail_electric rail_fast ship" speed="14.58" length="16.02" shape="10494.31,1201.21 10494.70,1199.60 10498.50,1193.26 10504.02,1189.01"/>
    </edge>
    <edge id=":i_cr30_lln_19" function="internal">
        <lane id=":i_cr30_lln_19_0" index="0" disallow="tram rail_urban rail rail_electric rail_fast ship" speed="14.15" length="18.54" shape="10493.98,1205.72 10495.14,1202.06 10499.37,1196.18 10505.45,1191.87"/>
    </edge>
    <edge id=":i_cr30_lln_5" function="internal">
        <lane id=":i_cr30_lln_5_0" index="0" disallow="tram rail_urban rail rail_electric rail_fast ship" speed="11.79" length="21.83" shape="10511.99,1204.88 10504.73,1208.89 10499.58,1212.47 10496.55,1215.63 10495.62,1218.36"/>
    </edge>
    <edge id=":i_cr30_lln_6" function="internal">
        <lane id=":i_cr30_lln_6_0" index="0" disallow="tram rail_urban rail rail_electric rail_fast ship" speed="21.23" length="30.25" shape="10510.55,1202.02 10501.78,1206.02 10494.92,1208.57 10488.99,1210.85 10483.00,1214.03"/>
        <lane id=":i_cr30_lln_6_1" index="1" disallow="tram rail_urban rail rail_electric rail_fast ship" speed="21.23" length="30.25" shape="10509.12,1199.16 10500.25,1203.21 10493.30,1205.82 10487.30,1208.13 10481.29,1211.32"/>
    </edge>
    <edge id=":i_cr30_lln_8" function="internal">
        <lane id=":i_cr30_lln_8_0" index="0" disallow="tram rail_urban rail rail_electric rail_fast ship" speed="9.35" length="26.33" shape="10507.68,1196.30 10500.75,1198.21 10495.57,1196.41 10492.24,1191.45 10490.90,1183.88"/>
    </edge>
    <edge id=":i_cr30_lln_9" function="internal">
        <lane id=":i_cr30_lln_9_0" index="0" disallow="tram rail_urban rail rail_electric rail_fast ship" speed="6.08" length="10.46" shape="10498.07,1183.63 10498.47,1187.09 10499.60,1189.14 10501.45,1189.78 10504.02,1189.01"/>
        <lane id=":i_cr30_lln_9_1" index="1" disallow="tram rail_urban rail rail_electric rail_fast ship" speed="6.97" length="14.18" shape="10498.07,1183.63 10498.57,1188.60 10499.97,1191.63 10502.27,1192.72 10505.45,1191.87"/>
    </edge>
    <edge id=":i_cr30_lln_11" function="internal">
        <lane id=":i_cr30_lln_11_0" index="0" speed="15.64" length="34.82" shape="10498.07,1183.63 10495.62,1218.36"/>
    </edge>
    <edge id=":i_cr30_lln_12" function="internal">
        <lane id=":i_cr30_lln_12_0" index="0" disallow="tram rail_urban rail rail_electric rail_fast ship" speed="15.85" length="18.20" shape="10494.87,1183.74 10494.21,1194.13 10492.26,1201.68"/>
        <lane id=":i_cr30_lln_12_1" index="1" disallow="tram rail_urban rail rail_electric rail_fast ship" speed="15.44" length="13.48" shape="10494.87,1183.74 10494.09,1192.55 10492.62,1196.94"/>
    </edge>
    <edge id=":i_cr30_lln_20" function="internal">
        <lane id=":i_cr30_lln_20_0" index="0" disallow="tram rail_urban rail rail_electric rail_fast ship" speed="15.85" length="15.71" shape="10492.26,1201.68 10492.02,1202.63 10488.28,1209.27 10483.00,1214.03"/>
    </edge>
    <edge id=":i_cr30_lln_21" function="internal">
        <lane id=":i_cr30_lln_21_0" index="0" disallow="tram rail_urban rail rail_electric rail_fast ship" speed="15.44" length="18.69" shape="10492.62,1196.94 10491.57,1200.08 10487.30,1206.33 10481.29,1211.32"/>
    </edge>
    <edge id=":i_cr30_lln_14" function="internal">
        <lane id=":i_cr30_lln_14_0" index="0" disallow="tram rail_urban rail rail_electric rail_fast ship" speed="13.11" length="23.67" shape="10473.95,1199.70 10481.43,1194.62 10486.75,1190.29 10489.91,1186.71 10490.90,1183.88"/>
    </edge>
    <edge id=":i_cr30_lln_15" function="internal">
        <lane id=":i_cr30_lln_15_0" index="0" disallow="tram rail_urban rail rail_electric rail_fast ship" speed="21.23" length="31.26" shape="10475.66,1202.41 10484.41,1197.39 10491.45,1194.23 10497.68,1191.81 10504.02,1189.01"/>
        <lane id=":i_cr30_lln_15_1" index="1" disallow="tram rail_urban rail rail_electric rail_fast ship" speed="21.23" length="31.26" shape="10477.37,1205.11 10486.02,1200.16 10492.97,1197.05 10499.14,1194.66 10505.45,1191.87"/>
    </edge>
    <edge id=":i_cr30_lln_17" function="internal">
        <lane id=":i_cr30_lln_17_0" index="0" disallow="tram rail_urban rail rail_electric rail_fast ship" speed="8.94" length="25.02" shape="10479.08,1207.82 10485.46,1205.47 10490.58,1206.81 10494.09,1211.30 10495.62,1218.36"/>
    </edge>
    <edge id=":i_cr30_pln_0" function="internal">
        <lane id=":i_cr30_pln_0_0" index="0" disallow="tram rail_urban rail rail_electric rail_fast ship" speed="22.35" length="14.92" shape="10129.55,1434.18 10116.68,1441.70"/>
        <lane id=":i_cr30_pln_0_1" index="1" disallow="tram rail_urban rail rail_electric rail_fast ship" speed="22.35" length="14.92" shape="10127.90,1431.44 10115.01,1438.97"/>
    </edge>
    <edge id=":i_cr30_pln_2" function="internal">
        <lane id=":i_cr30_pln_2_0" index="0" disallow="tram rail_urban rail rail_electric rail_fast ship" speed="10.21" length="9.07" shape="10126.24,1428.70 10121.69,1430.01 10117.57,1428.67"/>
    </edge>
    <edge id=":i_cr30_pln_8" function="internal">
        <lane id=":i_cr30_pln_8_0" index="0" disallow="tram rail_urban rail rail_electric rail_fast ship" speed="10.21" length="15.34" shape="10117.57,1428.67 10117.10,1428.52 10112.46,1424.22 10107.77,1417.10"/>
    </edge>
    <edge id=":i_cr30_pln_3" function="internal">
        <lane id=":i_cr30_pln_3_0" index="0" disallow="tram rail_urban rail rail_electric rail_fast ship" speed="7.67" length="13.25" shape="10110.32,1414.93 10112.77,1418.40 10115.34,1420.37 10118.05,1420.86 10120.89,1419.84"/>
    </edge>
    <edge id=":i_cr30_pln_4" function="internal">
        <lane id=":i_cr30_pln_4_0" index="0" disallow="tram rail_urban rail rail_electric rail_fast ship" speed="10.84" length="26.18" shape="10110.32,1414.93 10114.84,1423.93 10117.13,1430.94 10117.19,1435.95 10115.01,1438.97"/>
    </edge>
    <edge id=":i_cr30_pln_5" function="internal">
        <lane id=":i_cr30_pln_5_0" index="0" disallow="tram rail_urban rail rail_electric rail_fast ship" speed="6.58" length="8.87" shape="10106.34,1424.85 10108.02,1423.37 10108.82,1421.58 10108.74,1419.50 10107.77,1417.10"/>
    </edge>
    <edge id=":i_cr30_pln_6" function="internal">
        <lane id=":i_cr30_pln_6_0" index="0" disallow="tram rail_urban rail rail_electric rail_fast ship" speed="22.35" length="15.00" shape="10108.02,1427.58 10120.89,1419.84"/>
        <lane id=":i_cr30_pln_6_1" index="1" disallow="tram rail_urban rail rail_electric rail_fast ship" speed="22.35" length="15.00" shape="10109.69,1430.30 10122.54,1422.58"/>
    </edge>
    <edge id=":i_cr30_tln_0" function="internal">
        <lane id=":i_cr30_tln_0_0" index="0" disallow="tram rail_urban rail rail_electric rail_fast ship" speed="7.20" length="11.24" shape="9585.54,1633.38 9585.12,1629.79 9584.03,1627.24 9582.25,1625.71 9579.80,1625.23"/>
        <lane id=":i_cr30_tln_0_1" index="1" disallow="tram rail_urban rail rail_electric rail_fast ship" speed="7.99" length="14.05" shape="9585.54,1633.38 9585.10,1628.39 9583.99,1624.84 9582.21,1622.71 9579.76,1622.03"/>
    </edge>
    <edge id=":i_cr30_tln_2" function="internal">
        <lane id=":i_cr30_tln_2_0" index="0" disallow="tram rail_urban rail rail_electric rail_fast ship" speed="11.53" length="30.28" shape="9588.74,1633.38 9589.53,1623.86 9592.31,1616.98 9597.07,1612.76 9603.84,1611.18"/>
        <lane id=":i_cr30_tln_2_1" index="1" disallow="tram rail_urban rail rail_electric rail_fast ship" speed="11.02" length="27.60" shape="9588.74,1633.38 9589.56,1625.26 9592.36,1619.38 9597.16,1615.76 9603.94,1614.38"/>
    </edge>
    <edge id=":i_cr30_tln_4" function="internal">
        <lane id=":i_cr30_tln_4_0" index="0" disallow="tram rail_urban rail rail_electric rail_fast ship" speed="8.21" length="14.76" shape="9604.37,1627.85 9598.95,1628.29 9595.08,1629.36 9592.77,1631.05 9592.00,1633.37"/>
    </edge>
    <edge id=":i_cr30_tln_5" function="internal">
        <lane id=":i_cr30_tln_5_0" index="0" disallow="tram rail_urban rail rail_electric rail_fast ship" speed="22.35" length="24.44" shape="9604.27,1624.65 9579.80,1625.23"/>
        <lane id=":i_cr30_tln_5_1" index="1" disallow="tram rail_urban rail rail_electric rail_fast ship" speed="22.35" length="24.44" shape="9604.16,1621.45 9579.76,1622.03"/>
    </edge>
    <edge id=":i_cr30_tln_7" function="internal">
        <lane id=":i_cr30_tln_7_0" index="0" disallow="tram rail_urban rail rail_electric rail_fast ship" speed="22.35" length="24.23" shape="9579.64,1611.55 9603.84,1611.18"/>
        <lane id=":i_cr30_tln_7_1" index="1" disallow="tram rail_urban rail rail_electric rail_fast ship" speed="22.35" length="24.23" shape="9579.68,1614.75 9603.94,1614.38"/>
    </edge>
    <edge id=":i_cr30_tln_9" function="internal">
        <lane id=":i_cr30_tln_9_0" index="0" disallow="tram rail_urban rail rail_electric rail_fast ship" speed="9.90" length="22.44" shape="9579.71,1617.95 9585.08,1618.86 9588.91,1621.73 9591.22,1626.57 9592.00,1633.37"/>
    </edge>
    <edge id=":ncr101_du_2_0" function="internal">
        <lane id=":ncr101_du_2_0_0" index="0" speed="22.35" length="8.40" shape="8932.49,1514.77 8932.59,1522.77"/>
        <lane id=":ncr101_du_2_0_1" index="1" speed="22.35" length="8.40" shape="8932.49,1514.77 8932.02,1517.24 8930.95,1518.79 8929.87,1520.34 8929.39,1522.81"/>
    </edge>
    <edge id=":ncr101_du_3_0" function="internal">
        <lane id=":ncr101_du_3_0_0" index="0" speed="22.35" length="16.67" shape="8932.96,1576.71 8933.47,1582.02 8934.66,1585.98 8936.12,1589.29 8937.47,1592.62"/>
    </edge>
    <edge id=":ncr101_du_3_1" function="internal">
        <lane id=":ncr101_du_3_1_0" index="0" speed="22.35" length="16.79" shape="8932.96,1576.71 8933.24,1593.48"/>
        <lane id=":ncr101_du_3_1_1" index="1" speed="22.35" length="16.79" shape="8929.76,1576.74 8930.04,1593.54"/>
    </edge>
    <edge id=":ncr101_du_4_0" function="internal">
        <lane id=":ncr101_du_4_0_0" index="0" speed="22.35" length="22.66" shape="8936.82,1663.40 8934.17,1685.91"/>
    </edge>
    <edge id=":ncr101_du_4_1" function="internal">
        <lane id=":ncr101_du_4_1_0" index="0" speed="22.35" length="22.68" shape="8933.48,1663.24 8934.17,1685.91"/>
    </edge>
    <edge id=":ncr101_ud_2_0" function="internal">
        <lane id=":ncr101_ud_2_0_0" index="0" speed="22.35" length="8.38" shape="8926.05,1722.64 8925.90,1714.68"/>
        <lane id=":ncr101_ud_2_0_1" index="1" speed="22.35" length="8.38" shape="8926.05,1722.64 8926.53,1720.17 8927.61,1718.61 8928.67,1717.06 8929.10,1714.59"/>
    </edge>
    <edge id=":ncr30_lr_10_0" function="internal">
        <lane id=":ncr30_lr_10_0_0" index="0" disallow="tram rail_urban rail rail_electric rail_fast ship" speed="22.35" length="8.24" shape="10390.99,1257.23 10392.74,1255.60 10393.39,1253.90 10394.02,1252.17 10395.69,1250.42"/>
        <lane id=":ncr30_lr_10_0_1" index="1" disallow="tram rail_urban rail rail_electric rail_fast ship" speed="22.35" length="8.24" shape="10390.99,1257.23 10397.50,1253.06"/>
        <lane id=":ncr30_lr_10_0_2" index="2" disallow="tram rail_urban rail rail_electric rail_fast ship" speed="22.35" length="8.24" shape="10392.64,1259.98 10399.30,1255.70"/>
        <lane id=":ncr30_lr_10_0_3" index="3" disallow="tram rail_urban rail rail_electric rail_fast ship" speed="22.35" length="8.24" shape="10392.64,1259.98 10395.02,1259.13 10396.93,1259.24 10398.80,1259.31 10401.11,1258.34"/>
    </edge>
    <edge id=":ncr30_lr_11_0" function="internal">
        <lane id=":ncr30_lr_11_0_0" index="0" disallow="tram rail_urban rail rail_electric rail_fast ship" speed="20.12" length="8.40" shape="10887.19,1182.07 10889.70,1182.05 10891.42,1181.27 10893.14,1180.48 10895.66,1180.46"/>
        <lane id=":ncr30_lr_11_0_1" index="1" disallow="tram rail_urban rail rail_electric rail_fast ship" speed="20.12" length="8.40" shape="10887.19,1182.07 10895.04,1183.61"/>
        <lane id=":ncr30_lr_11_0_2" index="2" disallow="tram rail_urban rail rail_electric rail_fast ship" speed="20.12" length="8.40" shape="10886.58,1185.21 10894.43,1186.75"/>
        <lane id=":ncr30_lr_11_0_3" index="3" disallow="tram rail_urban rail rail_electric rail_fast ship" speed="20.12" length="8.40" shape="10886.58,1185.21 10888.90,1186.17 10890.20,1187.55 10891.50,1188.92 10893.82,1189.89"/>
    </edge>
    <edge id=":ncr30_lr_2_0" function="internal">
        <lane id=":ncr30_lr_2_0_0" index="0" speed="22.35" length="8.40" shape="8840.17,1617.03 8848.18,1617.01"/>
        <lane id=":ncr30_lr_2_0_1" index="1" speed="22.35" length="8.40" shape="8840.17,1617.03 8842.63,1617.52 8844.17,1618.61 8845.71,1619.71 8848.17,1620.21"/>
    </edge>
    <edge id=":ncr30_lr_3_0" function="internal">
        <lane id=":ncr30_lr_3_0_0" index="0" speed="17.50" length="11.42" shape="8949.99,1613.77 8952.81,1615.06 8955.07,1615.78 8957.54,1616.06 8961.00,1616.07"/>
    </edge>
    <edge id=":ncr30_lr_3_1" function="internal">
        <lane id=":ncr30_lr_3_1_0" index="0" speed="22.35" length="11.64" shape="8949.56,1617.67 8952.64,1617.94 8955.00,1618.51 8957.51,1619.06 8961.04,1619.27"/>
    </edge>
    <edge id=":ncr30_lr_4_0" function="internal">
        <lane id=":ncr30_lr_4_0_0" index="0" disallow="tram rail_urban rail rail_electric rail_fast ship" speed="11.62" length="16.19" shape="9132.30,1621.54 9128.97,1618.64 9126.60,1615.41 9125.17,1611.85 9124.68,1607.95"/>
    </edge>
    <edge id=":ncr30_lr_4_1" function="internal">
        <lane id=":ncr30_lr_4_1_0" index="0" speed="5.37" length="9.86" shape="9132.30,1621.54 9130.00,1619.48 9129.60,1617.96 9131.10,1617.00 9134.49,1616.58"/>
    </edge>
    <edge id=":ncr30_lr_4_2" function="internal">
        <lane id=":ncr30_lr_4_2_0" index="0" disallow="tram rail_urban rail rail_electric rail_fast ship" speed="6.62" length="9.68" shape="9127.96,1607.95 9128.35,1610.40 9129.54,1612.13 9131.56,1613.12 9134.39,1613.38"/>
    </edge>
    <edge id=":ncr30_lr_4_3" function="internal">
        <lane id=":ncr30_lr_4_3_0" index="0" disallow="tram rail_urban rail rail_electric rail_fast ship" speed="6.55" length="9.08" shape="9119.09,1613.66 9121.54,1613.27 9123.29,1612.19 9124.34,1610.42 9124.68,1607.95"/>
    </edge>
    <edge id=":ncr30_lr_4_4" function="internal">
        <lane id=":ncr30_lr_4_4_0" index="0" speed="22.35" length="15.35" shape="9119.09,1613.66 9134.39,1613.38"/>
        <lane id=":ncr30_lr_4_4_1" index="1" speed="22.35" length="15.35" shape="9119.10,1616.86 9134.49,1616.58"/>
    </edge>
    <edge id=":ncr30_lr_5_0" function="internal">