<?xml version="1.0" encoding="UTF-8"?>
<!-- generated on 2021-05-31 11:18:38.209043 by $Id$ v1_8_0+0044-4820708f3d
  options: -r random_routes.rou.xml -t d_3_turnCount_am_offpeak_2.xml -o ..\rou\d_3_turnCount_am_offpeak_2.rou.xml <doubleminus>write-route-ids
-->
<routes xmlns:xsi="http://www.w3.org/2001/XMLSchema-instance" xsi:noNamespaceSchemaLocation="http://sumo.dlr.de/xsd/routes_file.xsd">
<!-- begin="0.0" end="2700.0" -->
    <route id="3" edges="CR101_DU_1 CR101_DU_2 CR101_DU_3 CR101_DU_4 CR101_DU_5"/> <!-- 274 -->
    <route id="4" edges="CR101_DU_1 CR101_DU_2 CR101_DU_3 CR30_RL_16"/> <!-- 23 -->
    <route id="6" edges="CR101_DU_1 CR101_DU_2 CR101_DU_3R CR30_LR_4"/> <!-- 1 -->
    <route id="7" edges="CR101_DU_1 CR101_DU_2 CR101_DU_3R CR30_LR_4 CR30_LR_5"/> <!-- 3 -->
    <route id="8" edges="CR101_DU_1 CR101_DU_2 CR101_DU_3R CR30_LR_4 CR30_LR_5 CR30_LR_6"/> <!-- 9 -->
    <route id="9" edges="CR101_DU_1 CR101_DU_2 CR101_DU_3R CR30_LR_4 CR30_LR_5 CR30_LR_6 CR30_LR_7"/> <!-- 8 -->
    <route id="10" edges="CR101_DU_1 CR101_DU_2 CR101_DU_3R CR30_LR_4 CR30_LR_5 CR30_LR_6 CR30_LR_7 CR30_LR_8"/> <!-- 7 -->
    <route id="11" edges="CR101_DU_1 CR101_DU_2 CR101_DU_3R CR30_LR_4 CR30_LR_5 CR30_LR_6 CR30_LR_7 CR30_LR_8 CR30_LR_9"/> <!-- 4 -->
    <route id="12" edges="CR101_DU_1 CR101_DU_2 CR101_DU_3R CR30_LR_4 CR30_LR_5 CR30_LR_6 CR30_LR_7 CR30_LR_8 CR30_LR_9 CR30_LR_10from9"/> <!-- 5 -->
    <route id="13" edges="CR101_DU_1 CR101_DU_2 CR101_DU_3R CR30_LR_4 CR30_LR_5 CR30_LR_6 CR30_LR_7 CR30_LR_8 CR30_LR_9 CR30_LR_10from9 CR30_LR_10"/> <!-- 5 -->
    <route id="14" edges="CR101_DU_1 CR101_DU_2 CR101_DU_3R CR30_LR_4 CR30_LR_5 CR30_LR_6 CR30_LR_7 CR30_LR_8 CR30_LR_9 CR30_LR_10from9 CR30_LR_10 CR30_LR_11"/> <!-- 4 -->
    <route id="15" edges="CR101_DU_1 CR101_DU_2 CR101_DU_3R CR30_LR_4 CR30_LR_5 CR30_LR_6 CR30_LR_7 CR30_LR_8 CR30_LR_9 CR30_LR_10from9 CR30_LR_10 CR30_LR_11 CR30_LR_12"/> <!-- 5 -->
    <route id="16" edges="CR101_DU_1 CR101_DU_2 CR101_DU_3R CR30_LR_4 CR30_LR_5 CR30_LR_6 CR30_LR_7 CR30_LR_8 CR30_LR_9 CR30_LR_10from9 CR30_LR_10 CR30_LR_11 CR30_LR_12 CR30_LR_13"/> <!-- 7 -->
    <route id="17" edges="CR101_DU_1 CR101_DU_2 CR101_DU_3R CR30_LR_4 CR30_LR_5 CR30_LR_6 CR30_LR_7 CR30_LR_8 CR30_LR_9 CR30_LR_10from9 CR30_LR_10 CR30_LR_11 CR30_LR_12 CR30_LR_13 CR30_LR_14"/> <!-- 4 -->
    <route id="18" edges="CR101_DU_1 CR101_DU_2 CR101_DU_3R CR30_LR_4 CR30_LR_5 CR30_LR_6 CR30_LR_7 CR30_LR_8 CR30_LR_9 CR30_LR_10from9 CR30_LR_10 CR30_LR_11 CR30_LR_12 CR30_LR_13 CR30_LR_14 CR30_LR_15from14"/> <!-- 9 -->
    <route id="19" edges="CR101_DU_1 CR101_DU_2 CR101_DU_3R CR30_LR_4 CR30_LR_5 CR30_LR_6 CR30_LR_7 CR30_LR_8 CR30_LR_9 CR30_LR_10from9 CR30_LR_10 CR30_LR_11 CR30_LR_12 CR30_LR_13 CR30_LR_14 CR30_LR_15from14 CR30_LR_15"/> <!-- 9 -->
    <route id="20" edges="CR101_DU_1 CR101_DU_2 CR101_DU_3R CR30_LR_4 CR30_LR_5 CR30_LR_6 CR30_LR_7 CR30_LR_8 CR30_LR_9 CR30_LR_10from9 CR30_LR_10 CR30_LR_11 CR30_LR_12 CR30_LR_13 CR30_LR_14 CR30_LR_15from14 CR30_LR_15 CR30_LR_16"/> <!-- 13 -->
    <route id="21" edges="CR101_DU_1 CR101_DU_2 CR101_DU_3R CR30_LR_4 CR30_LR_5 CR30_LR_6 CR30_LR_7 CR30_LR_8 CR30_LR_9 CR30_LR_10from9 CR30_LR_10 CR30_LR_11 CR30_LR_12 CR30_LR_13 CR30_LR_14 CR30_LR_15from14 CR30_LR_15 GLN_DU_3"/> <!-- 1 -->
    <route id="23" edges="CR101_DU_1 CR101_DU_2 CR101_DU_3R CR30_LR_4 CR30_LR_5 CR30_LR_6 CR30_LR_7 CR30_LR_8 CR30_LR_9 CR30_LR_10from9 CR30_LR_10 CR30_LR_11 CR30_LR_12 CR30_LR_13 CR30_LR_14 CR30_LR_15from14 CR30_LR_15 GLN_UD_3"/> <!-- 3 -->
    <route id="24" edges="CR101_DU_1 CR101_DU_2 CR101_DU_3R CR30_LR_4 CR30_LR_5 CR30_LR_6 CR30_LR_7 CR30_LR_8 CR30_LR_9 CR30_LR_10from9 CR30_LR_10 CR30_LR_11 CR30_LR_12 CR30_LR_13 CR30_LR_14 CR30_LR_15from14 CR30_LR_15 GLN_UD_3 GLN_UD_4"/> <!-- 3 -->
    <route id="25" edges="CR101_DU_1 CR101_DU_2 CR101_DU_3R CR30_LR_4 CR30_LR_5 CR30_LR_6 CR30_LR_7 CR30_LR_8 CR30_LR_9 CR30_LR_10from9 CR30_LR_10 CR30_LR_11 CR30_LR_12 CR30_LR_13 LLN_DU_3"/> <!-- 1 -->
    <route id="26" edges="CR101_DU_1 CR101_DU_2 CR101_DU_3R CR30_LR_4 CR30_LR_5 CR30_LR_6 CR30_LR_7 CR30_LR_8 CR30_LR_9 CR30_LR_10from9 CR30_LR_10 CR30_LR_11 CR30_LR_12 CR30_LR_13 LLN_UD_3"/> <!-- 5 -->
    <route id="27" edges="CR101_DU_1 CR101_DU_2 CR101_DU_3R CR30_LR_4 CR30_LR_5 CR30_LR_6 CR30_LR_7 CR30_LR_8 CR30_LR_9 CR30_LR_10from9 CR30_LR_10 CR30_LR_11 PLN_UD"/> <!-- 7 -->
    <route id="28" edges="CR101_DU_1 CR101_DU_2 CR101_DU_3R CR30_LR_4 CR30_LR_5 CR30_LR_6 CR30_LR_7 CR30_LR_8 CR30_LR_9 CR30_LR_10from9 QLN_UD"/> <!-- 3 -->
    <route id="32" edges="CR101_DU_1 CR101_DU_2 CR101_DU_3R CR30_LR_4 CR30_LR_5 CR30_LR_6 CR30_LR_7 CR30_LR_8 TLN_DU TLN_DU_2 TLN_UD_1 TLN_UD_2.1 TLN_UD_2"/> <!-- 1 -->
    <route id="44" edges="CR101_DU_1 CR101_DU_2 CR101_DU_3R CR30_LR_4 CR30_LR_5 CR30_LR_6 WCN_UD"/> <!-- 5 -->
    <route id="45" edges="CR101_DU_1 CR101_DU_2 CR101_DU_3R CR30_LR_4 ZLN_UD"/> <!-- 3 -->
    <route id="57" edges="CR101_DU_2 CR101_DU_3R CR30_LR_4 CR30_LR_5 CR30_LR_6 CR30_LR_7 CR30_LR_8 CR30_LR_9"/> <!-- 3 -->
    <route id="58" edges="CR101_DU_2 CR101_DU_3R CR30_LR_4 CR30_LR_5 CR30_LR_6 CR30_LR_7 CR30_LR_8 CR30_LR_9 CR30_LR_10from9"/> <!-- 1 -->
    <route id="59" edges="CR101_DU_2 CR101_DU_3R CR30_LR_4 CR30_LR_5 CR30_LR_6 CR30_LR_7 CR30_LR_8 CR30_LR_9 CR30_LR_10from9 CR30_LR_10"/> <!-- 2 -->
    <route id="60" edges="CR101_DU_2 CR101_DU_3R CR30_LR_4 CR30_LR_5 CR30_LR_6 CR30_LR_7 CR30_LR_8 CR30_LR_9 CR30_LR_10from9 CR30_LR_10 CR30_LR_11"/> <!-- 1 -->
    <route id="62" edges="CR101_DU_2 CR101_DU_3R CR30_LR_4 CR30_LR_5 CR30_LR_6 CR30_LR_7 CR30_LR_8 CR30_LR_9 CR30_LR_10from9 CR30_LR_10 CR30_LR_11 CR30_LR_12 CR30_LR_13"/> <!-- 2 -->
    <route id="64" edges="CR101_DU_2 CR101_DU_3R CR30_LR_4 CR30_LR_5 CR30_LR_6 CR30_LR_7 CR30_LR_8 CR30_LR_9 CR30_LR_10from9 CR30_LR_10 CR30_LR_11 CR30_LR_12 CR30_LR_13 CR30_LR_14 CR30_LR_15from14"/> <!-- 4 -->
    <route id="65" edges="CR101_DU_2 CR101_DU_3R CR30_LR_4 CR30_LR_5 CR30_LR_6 CR30_LR_7 CR30_LR_8 CR30_LR_9 CR30_LR_10from9 CR30_LR_10 CR30_LR_11 CR30_LR_12 CR30_LR_13 CR30_LR_14 CR30_LR_15from14 CR30_LR_15"/> <!-- 6 -->
    <route id="66" edges="CR101_DU_2 CR101_DU_3R CR30_LR_4 CR30_LR_5 CR30_LR_6 CR30_LR_7 CR30_LR_8 CR30_LR_9 CR30_LR_10from9 CR30_LR_10 CR30_LR_11 CR30_LR_12 CR30_LR_13 CR30_LR_14 CR30_LR_15from14 CR30_LR_15 CR30_LR_16"/> <!-- 10 -->
    <route id="67" edges="CR101_DU_2 CR101_DU_3R CR30_LR_4 CR30_LR_5 CR30_LR_6 CR30_LR_7 CR30_LR_8 CR30_LR_9 CR30_LR_10from9 CR30_LR_10 CR30_LR_11 CR30_LR_12 CR30_LR_13 CR30_LR_14 CR30_LR_15from14 CR30_LR_15 GLN_DU_3"/> <!-- 1 -->
    <route id="69" edges="CR101_DU_2 CR101_DU_3R CR30_LR_4 CR30_LR_5 CR30_LR_6 CR30_LR_7 CR30_LR_8 CR30_LR_9 CR30_LR_10from9 CR30_LR_10 CR30_LR_11 CR30_LR_12 CR30_LR_13 CR30_LR_14 CR30_LR_15from14 CR30_LR_15 GLN_UD_3"/> <!-- 3 -->
    <route id="70" edges="CR101_DU_2 CR101_DU_3R CR30_LR_4 CR30_LR_5 CR30_LR_6 CR30_LR_7 CR30_LR_8 CR30_LR_9 CR30_LR_10from9 CR30_LR_10 CR30_LR_11 CR30_LR_12 CR30_LR_13 CR30_LR_14 CR30_LR_15from14 CR30_LR_15 GLN_UD_3 GLN_UD_4"/> <!-- 4 -->
    <route id="74" edges="CR101_DU_2 CR101_DU_3R CR30_LR_4 CR30_LR_5 CR30_LR_6 CR30_LR_7 CR30_LR_8 CR30_LR_9 CR30_LR_10from9 QLN_UD"/> <!-- 1 -->
    <route id="102" edges="CR101_DU_3R CR30_LR_4 CR30_LR_5 CR30_LR_6 CR30_LR_7 CR30_LR_8 CR30_LR_9"/> <!-- 3 -->
    <route id="103" edges="CR101_DU_3R CR30_LR_4 CR30_LR_5 CR30_LR_6 CR30_LR_7 CR30_LR_8 CR30_LR_9 CR30_LR_10from9"/> <!-- 3 -->
    <route id="104" edges="CR101_DU_3R CR30_LR_4 CR30_LR_5 CR30_LR_6 CR30_LR_7 CR30_LR_8 CR30_LR_9 CR30_LR_10from9 CR30_LR_10"/> <!-- 3 -->
    <route id="105" edges="CR101_DU_3R CR30_LR_4 CR30_LR_5 CR30_LR_6 CR30_LR_7 CR30_LR_8 CR30_LR_9 CR30_LR_10from9 CR30_LR_10 CR30_LR_11"/> <!-- 1 -->
    <route id="106" edges="CR101_DU_3R CR30_LR_4 CR30_LR_5 CR30_LR_6 CR30_LR_7 CR30_LR_8 CR30_LR_9 CR30_LR_10from9 CR30_LR_10 CR30_LR_11 CR30_LR_12"/> <!-- 1 -->
    <route id="107" edges="CR101_DU_3R CR30_LR_4 CR30_LR_5 CR30_LR_6 CR30_LR_7 CR30_LR_8 CR30_LR_9 CR30_LR_10from9 CR30_LR_10 CR30_LR_11 CR30_LR_12 CR30_LR_13"/> <!-- 3 -->
    <route id="108" edges="CR101_DU_3R CR30_LR_4 CR30_LR_5 CR30_LR_6 CR30_LR_7 CR30_LR_8 CR30_LR_9 CR30_LR_10from9 CR30_LR_10 CR30_LR_11 CR30_LR_12 CR30_LR_13 CR30_LR_14"/> <!-- 3 -->
    <route id="109" edges="CR101_DU_3R CR30_LR_4 CR30_LR_5 CR30_LR_6 CR30_LR_7 CR30_LR_8 CR30_LR_9 CR30_LR_10from9 CR30_LR_10 CR30_LR_11 CR30_LR_12 CR30_LR_13 CR30_LR_14 CR30_LR_15from14"/> <!-- 3 -->
    <route id="110" edges="CR101_DU_3R CR30_LR_4 CR30_LR_5 CR30_LR_6 CR30_LR_7 CR30_LR_8 CR30_LR_9 CR30_LR_10from9 CR30_LR_10 CR30_LR_11 CR30_LR_12 CR30_LR_13 CR30_LR_14 CR30_LR_15from14 CR30_LR_15"/> <!-- 1 -->
    <route id="111" edges="CR101_DU_3R CR30_LR_4 CR30_LR_5 CR30_LR_6 CR30_LR_7 CR30_LR_8 CR30_LR_9 CR30_LR_10from9 CR30_LR_10 CR30_LR_11 CR30_LR_12 CR30_LR_13 CR30_LR_14 CR30_LR_15from14 CR30_LR_15 CR30_LR_16"/> <!-- 18 -->
    <route id="115" edges="CR101_DU_3R CR30_LR_4 CR30_LR_5 CR30_LR_6 CR30_LR_7 CR30_LR_8 CR30_LR_9 CR30_LR_10from9 CR30_LR_10 CR30_LR_11 CR30_LR_12 CR30_LR_13 CR30_LR_14 CR30_LR_15from14 CR30_LR_15 GLN_UD_3 GLN_UD_4"/> <!-- 2 -->
    <route id="117" edges="CR101_DU_3R CR30_LR_4 CR30_LR_5 CR30_LR_6 CR30_LR_7 CR30_LR_8 CR30_LR_9 CR30_LR_10from9 CR30_LR_10 CR30_LR_11 CR30_LR_12 CR30_LR_13 LLN_UD_3"/> <!-- 2 -->
    <route id="118" edges="CR101_DU_3R CR30_LR_4 CR30_LR_5 CR30_LR_6 CR30_LR_7 CR30_LR_8 CR30_LR_9 CR30_LR_10from9 CR30_LR_10 CR30_LR_11 PLN_UD"/> <!-- 2 -->
    <route id="119" edges="CR101_DU_3R CR30_LR_4 CR30_LR_5 CR30_LR_6 CR30_LR_7 CR30_LR_8 CR30_LR_9 CR30_LR_10from9 QLN_UD"/> <!-- 1 -->
    <route id="142" edges="CR101_UD_1 CR101_UD_2 CR101_UD_3"/> <!-- 296 -->
    <route id="144" edges="CR101_UD_1 CR101_UD_2 CR30_LR_3 CR30_LR_4"/> <!-- 20 -->
    <route id="145" edges="CR101_UD_1 CR101_UD_2 CR30_LR_3 CR30_LR_4 CR30_LR_5"/> <!-- 13 -->
    <route id="146" edges="CR101_UD_1 CR101_UD_2 CR30_LR_3 CR30_LR_4 CR30_LR_5 CR30_LR_6"/> <!-- 8 -->
    <route id="147" edges="CR101_UD_1 CR101_UD_2 CR30_LR_3 CR30_LR_4 CR30_LR_5 CR30_LR_6 CR30_LR_7"/> <!-- 12 -->
    <route id="148" edges="CR101_UD_1 CR101_UD_2 CR30_LR_3 CR30_LR_4 CR30_LR_5 CR30_LR_6 CR30_LR_7 CR30_LR_8"/> <!-- 10 -->
    <route id="149" edges="CR101_UD_1 CR101_UD_2 CR30_LR_3 CR30_LR_4 CR30_LR_5 CR30_LR_6 CR30_LR_7 CR30_LR_8 CR30_LR_9"/> <!-- 10 -->
    <route id="150" edges="CR101_UD_1 CR101_UD_2 CR30_LR_3 CR30_LR_4 CR30_LR_5 CR30_LR_6 CR30_LR_7 CR30_LR_8 CR30_LR_9 CR30_LR_10from9"/> <!-- 14 -->
    <route id="151" edges="CR101_UD_1 CR101_UD_2 CR30_LR_3 CR30_LR_4 CR30_LR_5 CR30_LR_6 CR30_LR_7 CR30_LR_8 CR30_LR_9 CR30_LR_10from9 CR30_LR_10"/> <!-- 11 -->
    <route id="152" edges="CR101_UD_1 CR101_UD_2 CR30_LR_3 CR30_LR_4 CR30_LR_5 CR30_LR_6 CR30_LR_7 CR30_LR_8 CR30_LR_9 CR30_LR_10from9 CR30_LR_10 CR30_LR_11"/> <!-- 16 -->
    <route id="153" edges="CR101_UD_1 CR101_UD_2 CR30_LR_3 CR30_LR_4 CR30_LR_5 CR30_LR_6 CR30_LR_7 CR30_LR_8 CR30_LR_9 CR30_LR_10from9 CR30_LR_10 CR30_LR_11 CR30_LR_12"/> <!-- 14 -->
    <route id="154" edges="CR101_UD_1 CR101_UD_2 CR30_LR_3 CR30_LR_4 CR30_LR_5 CR30_LR_6 CR30_LR_7 CR30_LR_8 CR30_LR_9 CR30_LR_10from9 CR30_LR_10 CR30_LR_11 CR30_LR_12 CR30_LR_13"/> <!-- 16 -->
    <route id="155" edges="CR101_UD_1 CR101_UD_2 CR30_LR_3 CR30_LR_4 CR30_LR_5 CR30_LR_6 CR30_LR_7 CR30_LR_8 CR30_LR_9 CR30_LR_10from9 CR30_LR_10 CR30_LR_11 CR30_LR_12 CR30_LR_13 CR30_LR_14"/> <!-- 11 -->
    <route id="156" edges="CR101_UD_1 CR101_UD_2 CR30_LR_3 CR30_LR_4 CR30_LR_5 CR30_LR_6 CR30_LR_7 CR30_LR_8 CR30_LR_9 CR30_LR_10from9 CR30_LR_10 CR30_LR_11 CR30_LR_12 CR30_LR_13 CR30_LR_14 CR30_LR_15from14"/> <!-- 16 -->
    <route id="157" edges="CR101_UD_1 CR101_UD_2 CR30_LR_3 CR30_LR_4 CR30_LR_5 CR30_LR_6 CR30_LR_7 CR30_LR_8 CR30_LR_9 CR30_LR_10from9 CR30_LR_10 CR30_LR_11 CR30_LR_12 CR30_LR_13 CR30_LR_14 CR30_LR_15from14 CR30_LR_15"/> <!-- 25 -->
    <route id="158" edges="CR101_UD_1 CR101_UD_2 CR30_LR_3 CR30_LR_4 CR30_LR_5 CR30_LR_6 CR30_LR_7 CR30_LR_8 CR30_LR_9 CR30_LR_10from9 CR30_LR_10 CR30_LR_11 CR30_LR_12 CR30_LR_13 CR30_LR_14 CR30_LR_15from14 CR30_LR_15 CR30_LR_16"/> <!-- 14 -->
    <route id="160" edges="CR101_UD_1 CR101_UD_2 CR30_LR_3 CR30_LR_4 CR30_LR_5 CR30_LR_6 CR30_LR_7 CR30_LR_8 CR30_LR_9 CR30_LR_10from9 CR30_LR_10 CR30_LR_11 CR30_LR_12 CR30_LR_13 CR30_LR_14 CR30_LR_15from14 CR30_LR_15 GLN_DU_3 GLN_DU_4"/> <!-- 6 -->
    <route id="161" edges="CR101_UD_1 CR101_UD_2 CR30_LR_3 CR30_LR_4 CR30_LR_5 CR30_LR_6 CR30_LR_7 CR30_LR_8 CR30_LR_9 CR30_LR_10from9 CR30_LR_10 CR30_LR_11 CR30_LR_12 CR30_LR_13 CR30_LR_14 CR30_LR_15from14 CR30_LR_15 GLN_UD_3"/> <!-- 7 -->
    <route id="162" edges="CR101_UD_1 CR101_UD_2 CR30_LR_3 CR30_LR_4 CR30_LR_5 CR30_LR_6 CR30_LR_7 CR30_LR_8 CR30_LR_9 CR30_LR_10from9 CR30_LR_10 CR30_LR_11 CR30_LR_12 CR30_LR_13 CR30_LR_14 CR30_LR_15from14 CR30_LR_15 GLN_UD_3 GLN_UD_4"/> <!-- 4 -->
    <route id="164" edges="CR101_UD_1 CR101_UD_2 CR30_LR_3 CR30_LR_4 CR30_LR_5 CR30_LR_6 CR30_LR_7 CR30_LR_8 CR30_LR_9 CR30_LR_10from9 CR30_LR_10 CR30_LR_11 CR30_LR_12 CR30_LR_13 LLN_UD_3"/> <!-- 1 -->
    <route id="165" edges="CR101_UD_1 CR101_UD_2 CR30_LR_3 CR30_LR_4 CR30_LR_5 CR30_LR_6 CR30_LR_7 CR30_LR_8 CR30_LR_9 CR30_LR_10from9 CR30_LR_10 CR30_LR_11 PLN_UD"/> <!-- 19 -->
    <route id="166" edges="CR101_UD_1 CR101_UD_2 CR30_LR_3 CR30_LR_4 CR30_LR_5 CR30_LR_6 CR30_LR_7 CR30_LR_8 CR30_LR_9 CR30_LR_10from9 QLN_UD"/> <!-- 10 -->
    <route id="182" edges="CR101_UD_1 CR101_UD_2 CR30_LR_3 CR30_LR_4 CR30_LR_5 CR30_LR_6 WCN_UD"/> <!-- 9 -->
    <route id="183" edges="CR101_UD_1 CR101_UD_2 CR30_LR_3 CR30_LR_4 ZLN_UD"/> <!-- 14 -->
    <route id="184" edges="CR101_UD_1 CR101_UD_2 CR30_RL_16"/> <!-- 73 -->
    <route id="193" edges="CR101_UD_2 CR30_LR_3 CR30_LR_4 CR30_LR_5 CR30_LR_6 CR30_LR_7 CR30_LR_8 CR30_LR_9"/> <!-- 2 -->
    <route id="194" edges="CR101_UD_2 CR30_LR_3 CR30_LR_4 CR30_LR_5 CR30_LR_6 CR30_LR_7 CR30_LR_8 CR30_LR_9 CR30_LR_10from9"/> <!-- 4 -->
    <route id="196" edges="CR101_UD_2 CR30_LR_3 CR30_LR_4 CR30_LR_5 CR30_LR_6 CR30_LR_7 CR30_LR_8 CR30_LR_9 CR30_LR_10from9 CR30_LR_10 CR30_LR_11"/> <!-- 1 -->
    <route id="197" edges="CR101_UD_2 CR30_LR_3 CR30_LR_4 CR30_LR_5 CR30_LR_6 CR30_LR_7 CR30_LR_8 CR30_LR_9 CR30_LR_10from9 CR30_LR_10 CR30_LR_11 CR30_LR_12"/> <!-- 2 -->
    <route id="198" edges="CR101_UD_2 CR30_LR_3 CR30_LR_4 CR30_LR_5 CR30_LR_6 CR30_LR_7 CR30_LR_8 CR30_LR_9 CR30_LR_10from9 CR30_LR_10 CR30_LR_11 CR30_LR_12 CR30_LR_13"/> <!-- 3 -->
    <route id="200" edges="CR101_UD_2 CR30_LR_3 CR30_LR_4 CR30_LR_5 CR30_LR_6 CR30_LR_7 CR30_LR_8 CR30_LR_9 CR30_LR_10from9 CR30_LR_10 CR30_LR_11 CR30_LR_12 CR30_LR_13 CR30_LR_14 CR30_LR_15from14"/> <!-- 4 -->
    <route id="201" edges="CR101_UD_2 CR30_LR_3 CR30_LR_4 CR30_LR_5 CR30_LR_6 CR30_LR_7 CR30_LR_8 CR30_LR_9 CR30_LR_10from9 CR30_LR_10 CR30_LR_11 CR30_LR_12 CR30_LR_13 CR30_LR_14 CR30_LR_15from14 CR30_LR_15"/> <!-- 3 -->
    <route id="202" edges="CR101_UD_2 CR30_LR_3 CR30_LR_4 CR30_LR_5 CR30_LR_6 CR30_LR_7 CR30_LR_8 CR30_LR_9 CR30_LR_10from9 CR30_LR_10 CR30_LR_11 CR30_LR_12 CR30_LR_13 CR30_LR_14 CR30_LR_15from14 CR30_LR_15 CR30_LR_16"/> <!-- 10 -->
    <route id="206" edges="CR101_UD_2 CR30_LR_3 CR30_LR_4 CR30_LR_5 CR30_LR_6 CR30_LR_7 CR30_LR_8 CR30_LR_9 CR30_LR_10from9 CR30_LR_10 CR30_LR_11 CR30_LR_12 CR30_LR_13 CR30_LR_14 CR30_LR_15from14 CR30_LR_15 GLN_UD_3 GLN_UD_4"/> <!-- 2 -->
    <route id="208" edges="CR101_UD_2 CR30_LR_3 CR30_LR_4 CR30_LR_5 CR30_LR_6 CR30_LR_7 CR30_LR_8 CR30_LR_9 CR30_LR_10from9 CR30_LR_10 CR30_LR_11 CR30_LR_12 CR30_LR_13 LLN_UD_3"/> <!-- 1 -->
    <route id="209" edges="CR101_UD_2 CR30_LR_3 CR30_LR_4 CR30_LR_5 CR30_LR_6 CR30_LR_7 CR30_LR_8 CR30_LR_9 CR30_LR_10from9 CR30_LR_10 CR30_LR_11 PLN_UD"/> <!-- 3 -->
    <route id="210" edges="CR101_UD_2 CR30_LR_3 CR30_LR_4 CR30_LR_5 CR30_LR_6 CR30_LR_7 CR30_LR_8 CR30_LR_9 CR30_LR_10from9 QLN_UD"/> <!-- 3 -->
    <route id="215" edges="CR101_UD_2 CR30_LR_3 CR30_LR_4 CR30_LR_5 CR30_LR_6 CR30_LR_7 CR30_LR_8 TLN_DU TLN_DU_2 TLN_UD_1 TLN_UD_2.1 TLN_UD_2 CR30_RL_9"/> <!-- 1 -->
    <route id="231" edges="CR30_LR_1 CR30_LR_2 CR101_DU_4 CR101_DU_5"/> <!-- 63 -->
    <route id="232" edges="CR30_LR_1 CR30_LR_2 CR101_UD_3"/> <!-- 30 -->
    <route id="234" edges="CR30_LR_1 CR30_LR_2 CR30_LR_3 CR30_LR_4"/> <!-- 148 -->
    <route id="235" edges="CR30_LR_1 CR30_LR_2 CR30_LR_3 CR30_LR_4 CR30_LR_5"/> <!-- 149 -->
    <route id="236" edges="CR30_LR_1 CR30_LR_2 CR30_LR_3 CR30_LR_4 CR30_LR_5 CR30_LR_6"/> <!-- 141 -->
    <route id="237" edges="CR30_LR_1 CR30_LR_2 CR30_LR_3 CR30_LR_4 CR30_LR_5 CR30_LR_6 CR30_LR_7"/> <!-- 179 -->
    <route id="238" edges="CR30_LR_1 CR30_LR_2 CR30_LR_3 CR30_LR_4 CR30_LR_5 CR30_LR_6 CR30_LR_7 CR30_LR_8"/> <!-- 192 -->
    <route id="239" edges="CR30_LR_1 CR30_LR_2 CR30_LR_3 CR30_LR_4 CR30_LR_5 CR30_LR_6 CR30_LR_7 CR30_LR_8 CR30_LR_9"/> <!-- 16 -->
    <route id="240" edges="CR30_LR_1 CR30_LR_2 CR30_LR_3 CR30_LR_4 CR30_LR_5 CR30_LR_6 CR30_LR_7 CR30_LR_8 CR30_LR_9 CR30_LR_10from9"/> <!-- 18 -->
    <route id="241" edges="CR30_LR_1 CR30_LR_2 CR30_LR_3 CR30_LR_4 CR30_LR_5 CR30_LR_6 CR30_LR_7 CR30_LR_8 CR30_LR_9 CR30_LR_10from9 CR30_LR_10"/> <!-- 16 -->
    <route id="242" edges="CR30_LR_1 CR30_LR_2 CR30_LR_3 CR30_LR_4 CR30_LR_5 CR30_LR_6 CR30_LR_7 CR30_LR_8 CR30_LR_9 CR30_LR_10from9 CR30_LR_10 CR30_LR_11"/> <!-- 24 -->
    <route id="243" edges="CR30_LR_1 CR30_LR_2 CR30_LR_3 CR30_LR_4 CR30_LR_5 CR30_LR_6 CR30_LR_7 CR30_LR_8 CR30_LR_9 CR30_LR_10from9 CR30_LR_10 CR30_LR_11 CR30_LR_12"/> <!-- 15 -->
    <route id="244" edges="CR30_LR_1 CR30_LR_2 CR30_LR_3 CR30_LR_4 CR30_LR_5 CR30_LR_6 CR30_LR_7 CR30_LR_8 CR30_LR_9 CR30_LR_10from9 CR30_LR_10 CR30_LR_11 CR30_LR_12 CR30_LR_13"/> <!-- 18 -->
    <route id="245" edges="CR30_LR_1 CR30_LR_2 CR30_LR_3 CR30_LR_4 CR30_LR_5 CR30_LR_6 CR30_LR_7 CR30_LR_8 CR30_LR_9 CR30_LR_10from9 CR30_LR_10 CR30_LR_11 CR30_LR_12 CR30_LR_13 CR30_LR_14"/> <!-- 16 -->
    <route id="246" edges="CR30_LR_1 CR30_LR_2 CR30_LR_3 CR30_LR_4 CR30_LR_5 CR30_LR_6 CR30_LR_7 CR30_LR_8 CR30_LR_9 CR30_LR_10from9 CR30_LR_10 CR30_LR_11 CR30_LR_12 CR30_LR_13 CR30_LR_14 CR30_LR_15from14"/> <!-- 18 -->
    <route id="247" edges="CR30_LR_1 CR30_LR_2 CR30_LR_3 CR30_LR_4 CR30_LR_5 CR30_LR_6 CR30_LR_7 CR30_LR_8 CR30_LR_9 CR30_LR_10from9 CR30_LR_10 CR30_LR_11 CR30_LR_12 CR30_LR_13 CR30_LR_14 CR30_LR_15from14 CR30_LR_15"/> <!-- 16 -->
    <route id="248" edges="CR30_LR_1 CR30_LR_2 CR30_LR_3 CR30_LR_4 CR30_LR_5 CR30_LR_6 CR30_LR_7 CR30_LR_8 CR30_LR_9 CR30_LR_10from9 CR30_LR_10 CR30_LR_11 CR30_LR_12 CR30_LR_13 CR30_LR_14 CR30_LR_15from14 CR30_LR_15 CR30_LR_16"/> <!-- 25 -->
    <route id="250" edges="CR30_LR_1 CR30_LR_2 CR30_LR_3 CR30_LR_4 CR30_LR_5 CR30_LR_6 CR30_LR_7 CR30_LR_8 CR30_LR_9 CR30_LR_10from9 CR30_LR_10 CR30_LR_11 CR30_LR_12 CR30_LR_13 CR30_LR_14 CR30_LR_15from14 CR30_LR_15 GLN_DU_3 GLN_DU_4"/> <!-- 3 -->
    <route id="251" edges="CR30_LR_1 CR30_LR_2 CR30_LR_3 CR30_LR_4 CR30_LR_5 CR30_LR_6 CR30_LR_7 CR30_LR_8 CR30_LR_9 CR30_LR_10from9 CR30_LR_10 CR30_LR_11 CR30_LR_12 CR30_LR_13 CR30_LR_14 CR30_LR_15from14 CR30_LR_15 GLN_UD_3"/> <!-- 2 -->
    <route id="252" edges="CR30_LR_1 CR30_LR_2 CR30_LR_3 CR30_LR_4 CR30_LR_5 CR30_LR_6 CR30_LR_7 CR30_LR_8 CR30_LR_9 CR30_LR_10from9 CR30_LR_10 CR30_LR_11 CR30_LR_12 CR30_LR_13 CR30_LR_14 CR30_LR_15from14 CR30_LR_15 GLN_UD_3 GLN_UD_4"/> <!-- 3 -->
    <route id="254" edges="CR30_LR_1 CR30_LR_2 CR30_LR_3 CR30_LR_4 CR30_LR_5 CR30_LR_6 CR30_LR_7 CR30_LR_8 CR30_LR_9 CR30_LR_10from9 CR30_LR_10 CR30_LR_11 CR30_LR_12 CR30_LR_13 LLN_UD_3"/> <!-- 1 -->
    <route id="255" edges="CR30_LR_1 CR30_LR_2 CR30_LR_3 CR30_LR_4 CR30_LR_5 CR30_LR_6 CR30_LR_7 CR30_LR_8 CR30_LR_9 CR30_LR_10from9 CR30_LR_10 CR30_LR_11 PLN_UD"/> <!-- 16 -->
    <route id="256" edges="CR30_LR_1 CR30_LR_2 CR30_LR_3 CR30_LR_4 CR30_LR_5 CR30_LR_6 CR30_LR_7 CR30_LR_8 CR30_LR_9 CR30_LR_10from9 QLN_UD"/> <!-- 15 -->
    <route id="259" edges="CR30_LR_1 CR30_LR_2 CR30_LR_3 CR30_LR_4 CR30_LR_5 CR30_LR_6 CR30_LR_7 CR30_LR_8 TLN_DU TLN_DU_2 TLN_UD_1 TLN_UD_2.1"/> <!-- 1 -->
    <route id="272" edges="CR30_LR_1 CR30_LR_2 CR30_LR_3 CR30_LR_4 CR30_LR_5 CR30_LR_6 WCN_UD"/> <!-- 167 -->
    <route id="273" edges="CR30_LR_1 CR30_LR_2 CR30_LR_3 CR30_LR_4 ZLN_UD"/> <!-- 144 -->
    <route id="278" edges="CR30_LR_10 CR30_LR_11 CR30_LR_12 CR30_LR_13 CR30_LR_14"/> <!-- 11 -->
    <route id="279" edges="CR30_LR_10 CR30_LR_11 CR30_LR_12 CR30_LR_13 CR30_LR_14 CR30_LR_15from14"/> <!-- 3 -->
    <route id="280" edges="CR30_LR_10 CR30_LR_11 CR30_LR_12 CR30_LR_13 CR30_LR_14 CR30_LR_15from14 CR30_LR_15"/> <!-- 13 -->
    <route id="281" edges="CR30_LR_10 CR30_LR_11 CR30_LR_12 CR30_LR_13 CR30_LR_14 CR30_LR_15from14 CR30_LR_15 CR30_LR_16"/> <!-- 44 -->
    <route id="282" edges="CR30_LR_10 CR30_LR_11 CR30_LR_12 CR30_LR_13 CR30_LR_14 CR30_LR_15from14 CR30_LR_15 GLN_DU_3"/> <!-- 3 -->
    <route id="284" edges="CR30_LR_10 CR30_LR_11 CR30_LR_12 CR30_LR_13 CR30_LR_14 CR30_LR_15from14 CR30_LR_15 GLN_UD_3"/> <!-- 1 -->
    <route id="287" edges="CR30_LR_10 CR30_LR_11 CR30_LR_12 CR30_LR_13 LLN_UD_3"/> <!-- 1 -->
    <route id="294" edges="CR30_LR_10from9 CR30_LR_10 CR30_LR_11 CR30_LR_12 CR30_LR_13 CR30_LR_14"/> <!-- 11 -->
    <route id="295" edges="CR30_LR_10from9 CR30_LR_10 CR30_LR_11 CR30_LR_12 CR30_LR_13 CR30_LR_14 CR30_LR_15from14"/> <!-- 4 -->
    <route id="296" edges="CR30_LR_10from9 CR30_LR_10 CR30_LR_11 CR30_LR_12 CR30_LR_13 CR30_LR_14 CR30_LR_15from14 CR30_LR_15"/> <!-- 8 -->
    <route id="297" edges="CR30_LR_10from9 CR30_LR_10 CR30_LR_11 CR30_LR_12 CR30_LR_13 CR30_LR_14 CR30_LR_15from14 CR30_LR_15 CR30_LR_16"/> <!-- 51 -->
    <route id="300" edges="CR30_LR_10from9 CR30_LR_10 CR30_LR_11 CR30_LR_12 CR30_LR_13 CR30_LR_14 CR30_LR_15from14 CR30_LR_15 GLN_UD_3"/> <!-- 1 -->
    <route id="301" edges="CR30_LR_10from9 CR30_LR_10 CR30_LR_11 CR30_LR_12 CR30_LR_13 CR30_LR_14 CR30_LR_15from14 CR30_LR_15 GLN_UD_3 GLN_UD_4"/> <!-- 1 -->
    <route id="309" edges="CR30_LR_11 CR30_LR_12 CR30_LR_13 CR30_LR_14"/> <!-- 14 -->
    <route id="310" edges="CR30_LR_11 CR30_LR_12 CR30_LR_13 CR30_LR_14 CR30_LR_15from14"/> <!-- 11 -->
    <route id="311" edges="CR30_LR_11 CR30_LR_12 CR30_LR_13 CR30_LR_14 CR30_LR_15from14 CR30_LR_15"/> <!-- 13 -->
    <route id="312" edges="CR30_LR_11 CR30_LR_12 CR30_LR_13 CR30_LR_14 CR30_LR_15from14 CR30_LR_15 CR30_LR_16"/> <!-- 48 -->
    <route id="313" edges="CR30_LR_11 CR30_LR_12 CR30_LR_13 CR30_LR_14 CR30_LR_15from14 CR30_LR_15 GLN_DU_3"/> <!-- 1 -->
    <route id="318" edges="CR30_LR_11 CR30_LR_12 CR30_LR_13 LLN_UD_3"/> <!-- 1 -->
    <route id="322" edges="CR30_LR_12 CR30_LR_13 CR30_LR_14"/> <!-- 8 -->
    <route id="323" edges="CR30_LR_12 CR30_LR_13 CR30_LR_14 CR30_LR_15from14"/> <!-- 15 -->
    <route id="324" edges="CR30_LR_12 CR30_LR_13 CR30_LR_14 CR30_LR_15from14 CR30_LR_15"/> <!-- 17 -->
    <route id="325" edges="CR30_LR_12 CR30_LR_13 CR30_LR_14 CR30_LR_15from14 CR30_LR_15 CR30_LR_16"/> <!-- 62 -->
    <route id="328" edges="CR30_LR_12 CR30_LR_13 CR30_LR_14 CR30_LR_15from14 CR30_LR_15 GLN_UD_3"/> <!-- 2 -->
    <route id="329" edges="CR30_LR_12 CR30_LR_13 CR30_LR_14 CR30_LR_15from14 CR30_LR_15 GLN_UD_3 GLN_UD_4"/> <!-- 3 -->
    <route id="333" edges="CR30_LR_13 CR30_LR_14"/> <!-- 14 -->
    <route id="334" edges="CR30_LR_13 CR30_LR_14 CR30_LR_15from14"/> <!-- 11 -->
    <route id="335" edges="CR30_LR_13 CR30_LR_14 CR30_LR_15from14 CR30_LR_15"/> <!-- 12 -->
    <route id="336" edges="CR30_LR_13 CR30_LR_14 CR30_LR_15from14 CR30_LR_15 CR30_LR_16"/> <!-- 46 -->
    <route id="337" edges="CR30_LR_13 CR30_LR_14 CR30_LR_15from14 CR30_LR_15 GLN_DU_3"/> <!-- 1 -->
    <route id="338" edges="CR30_LR_13 CR30_LR_14 CR30_LR_15from14 CR30_LR_15 GLN_DU_3 GLN_DU_4"/> <!-- 1 -->
    <route id="339" edges="CR30_LR_13 CR30_LR_14 CR30_LR_15from14 CR30_LR_15 GLN_UD_3"/> <!-- 4 -->
    <route id="346" edges="CR30_LR_14 CR30_LR_15from14 CR30_LR_15 CR30_LR_16"/> <!-- 155 -->
    <route id="349" edges="CR30_LR_14 CR30_LR_15from14 CR30_LR_15 GLN_UD_3"/> <!-- 1 -->
    <route id="352" edges="CR30_LR_15 CR30_LR_16"/> <!-- 179 -->
    <route id="355" edges="CR30_LR_15 GLN_UD_3"/> <!-- 1 -->
    <route id="359" edges="CR30_LR_15from14 CR30_LR_15 CR30_LR_16"/> <!-- 174 -->
    <route id="375" edges="CR30_LR_2 CR30_LR_3 CR30_LR_4 CR30_LR_5 CR30_LR_6 CR30_LR_7 CR30_LR_8 CR30_LR_9 CR30_LR_10from9"/> <!-- 1 -->
    <route id="377" edges="CR30_LR_2 CR30_LR_3 CR30_LR_4 CR30_LR_5 CR30_LR_6 CR30_LR_7 CR30_LR_8 CR30_LR_9 CR30_LR_10from9 CR30_LR_10 CR30_LR_11"/> <!-- 2 -->
    <route id="378" edges="CR30_LR_2 CR30_LR_3 CR30_LR_4 CR30_LR_5 CR30_LR_6 CR30_LR_7 CR30_LR_8 CR30_LR_9 CR30_LR_10from9 CR30_LR_10 CR30_LR_11 CR30_LR_12"/> <!-- 2 -->
    <route id="379" edges="CR30_LR_2 CR30_LR_3 CR30_LR_4 CR30_LR_5 CR30_LR_6 CR30_LR_7 CR30_LR_8 CR30_LR_9 CR30_LR_10from9 CR30_LR_10 CR30_LR_11 CR30_LR_12 CR30_LR_13"/> <!-- 1 -->
    <route id="380" edges="CR30_LR_2 CR30_LR_3 CR30_LR_4 CR30_LR_5 CR30_LR_6 CR30_LR_7 CR30_LR_8 CR30_LR_9 CR30_LR_10from9 CR30_LR_10 CR30_LR_11 CR30_LR_12 CR30_LR_13 CR30_LR_14"/> <!-- 3 -->
    <route id="381" edges="CR30_LR_2 CR30_LR_3 CR30_LR_4 CR30_LR_5 CR30_LR_6 CR30_LR_7 CR30_LR_8 CR30_LR_9 CR30_LR_10from9 CR30_LR_10 CR30_LR_11 CR30_LR_12 CR30_LR_13 CR30_LR_14 CR30_LR_15from14"/> <!-- 3 -->
    <route id="382" edges="CR30_LR_2 CR30_LR_3 CR30_LR_4 CR30_LR_5 CR30_LR_6 CR30_LR_7 CR30_LR_8 CR30_LR_9 CR30_LR_10from9 CR30_LR_10 CR30_LR_11 CR30_LR_12 CR30_LR_13 CR30_LR_14 CR30_LR_15from14 CR30_LR_15"/> <!-- 6 -->
    <route id="383" edges="CR30_LR_2 CR30_LR_3 CR30_LR_4 CR30_LR_5 CR30_LR_6 CR30_LR_7 CR30_LR_8 CR30_LR_9 CR30_LR_10from9 CR30_LR_10 CR30_LR_11 CR30_LR_12 CR30_LR_13 CR30_LR_14 CR30_LR_15from14 CR30_LR_15 CR30_LR_16"/> <!-- 12 -->
    <route id="384" edges="CR30_LR_2 CR30_LR_3 CR30_LR_4 CR30_LR_5 CR30_LR_6 CR30_LR_7 CR30_LR_8 CR30_LR_9 CR30_LR_10from9 CR30_LR_10 CR30_LR_11 CR30_LR_12 CR30_LR_13 CR30_LR_14 CR30_LR_15from14 CR30_LR_15 GLN_DU_3"/> <!-- 1 -->
    <route id="386" edges="CR30_LR_2 CR30_LR_3 CR30_LR_4 CR30_LR_5 CR30_LR_6 CR30_LR_7 CR30_LR_8 CR30_LR_9 CR30_LR_10from9 CR30_LR_10 CR30_LR_11 CR30_LR_12 CR30_LR_13 CR30_LR_14 CR30_LR_15from14 CR30_LR_15 GLN_UD_3"/> <!-- 1 -->
    <route id="387" edges="CR30_LR_2 CR30_LR_3 CR30_LR_4 CR30_LR_5 CR30_LR_6 CR30_LR_7 CR30_LR_8 CR30_LR_9 CR30_LR_10from9 CR30_LR_10 CR30_LR_11 CR30_LR_12 CR30_LR_13 CR30_LR_14 CR30_LR_15from14 CR30_LR_15 GLN_UD_3 GLN_UD_4"/> <!-- 1 -->
    <route id="389" edges="CR30_LR_2 CR30_LR_3 CR30_LR_4 CR30_LR_5 CR30_LR_6 CR30_LR_7 CR30_LR_8 CR30_LR_9 CR30_LR_10from9 CR30_LR_10 CR30_LR_11 CR30_LR_12 CR30_LR_13 LLN_UD_3"/> <!-- 1 -->
    <route id="391" edges="CR30_LR_2 CR30_LR_3 CR30_LR_4 CR30_LR_5 CR30_LR_6 CR30_LR_7 CR30_LR_8 CR30_LR_9 CR30_LR_10from9 QLN_UD"/> <!-- 1 -->
    <route id="417" edges="CR30_LR_3 CR30_LR_4 CR30_LR_5 CR30_LR_6 CR30_LR_7 CR30_LR_8 CR30_LR_9 CR30_LR_10from9 CR30_LR_10"/> <!-- 2 -->
    <route id="418" edges="CR30_LR_3 CR30_LR_4 CR30_LR_5 CR30_LR_6 CR30_LR_7 CR30_LR_8 CR30_LR_9 CR30_LR_10from9 CR30_LR_10 CR30_LR_11"/> <!-- 3 -->
    <route id="419" edges="CR30_LR_3 CR30_LR_4 CR30_LR_5 CR30_LR_6 CR30_LR_7 CR30_LR_8 CR30_LR_9 CR30_LR_10from9 CR30_LR_10 CR30_LR_11 CR30_LR_12"/> <!-- 3 -->
    <route id="420" edges="CR30_LR_3 CR30_LR_4 CR30_LR_5 CR30_LR_6 CR30_LR_7 CR30_LR_8 CR30_LR_9 CR30_LR_10from9 CR30_LR_10 CR30_LR_11 CR30_LR_12 CR30_LR_13"/> <!-- 1 -->
    <route id="421" edges="CR30_LR_3 CR30_LR_4 CR30_LR_5 CR30_LR_6 CR30_LR_7 CR30_LR_8 CR30_LR_9 CR30_LR_10from9 CR30_LR_10 CR30_LR_11 CR30_LR_12 CR30_LR_13 CR30_LR_14"/> <!-- 2 -->
    <route id="422" edges="CR30_LR_3 CR30_LR_4 CR30_LR_5 CR30_LR_6 CR30_LR_7 CR30_LR_8 CR30_LR_9 CR30_LR_10from9 CR30_LR_10 CR30_LR_11 CR30_LR_12 CR30_LR_13 CR30_LR_14 CR30_LR_15from14"/> <!-- 4 -->
    <route id="423" edges="CR30_LR_3 CR30_LR_4 CR30_LR_5 CR30_LR_6 CR30_LR_7 CR30_LR_8 CR30_LR_9 CR30_LR_10from9 CR30_LR_10 CR30_LR_11 CR30_LR_12 CR30_LR_13 CR30_LR_14 CR30_LR_15from14 CR30_LR_15"/> <!-- 4 -->
    <route id="424" edges="CR30_LR_3 CR30_LR_4 CR30_LR_5 CR30_LR_6 CR30_LR_7 CR30_LR_8 CR30_LR_9 CR30_LR_10from9 CR30_LR_10 CR30_LR_11 CR30_LR_12 CR30_LR_13 CR30_LR_14 CR30_LR_15from14 CR30_LR_15 CR30_LR_16"/> <!-- 11 -->
    <route id="425" edges="CR30_LR_3 CR30_LR_4 CR30_LR_5 CR30_LR_6 CR30_LR_7 CR30_LR_8 CR30_LR_9 CR30_LR_10from9 CR30_LR_10 CR30_LR_11 CR30_LR_12 CR30_LR_13 CR30_LR_14 CR30_LR_15from14 CR30_LR_15 GLN_DU_3"/> <!-- 1 -->
    <route id="427" edges="CR30_LR_3 CR30_LR_4 CR30_LR_5 CR30_LR_6 CR30_LR_7 CR30_LR_8 CR30_LR_9 CR30_LR_10from9 CR30_LR_10 CR30_LR_11 CR30_LR_12 CR30_LR_13 CR30_LR_14 CR30_LR_15from14 CR30_LR_15 GLN_UD_3"/> <!-- 2 -->
    <route id="428" edges="CR30_LR_3 CR30_LR_4 CR30_LR_5 CR30_LR_6 CR30_LR_7 CR30_LR_8 CR30_LR_9 CR30_LR_10from9 CR30_LR_10 CR30_LR_11 CR30_LR_12 CR30_LR_13 CR30_LR_14 CR30_LR_15from14 CR30_LR_15 GLN_UD_3 GLN_UD_4"/> <!-- 2 -->
    <route id="431" edges="CR30_LR_3 CR30_LR_4 CR30_LR_5 CR30_LR_6 CR30_LR_7 CR30_LR_8 CR30_LR_9 CR30_LR_10from9 CR30_LR_10 CR30_LR_11 PLN_UD"/> <!-- 1 -->
    <route id="457" edges="CR30_LR_4 CR30_LR_5 CR30_LR_6 CR30_LR_7 CR30_LR_8 CR30_LR_9"/> <!-- 2 -->
    <route id="458" edges="CR30_LR_4 CR30_LR_5 CR30_LR_6 CR30_LR_7 CR30_LR_8 CR30_LR_9 CR30_LR_10from9"/> <!-- 1 -->
    <route id="459" edges="CR30_LR_4 CR30_LR_5 CR30_LR_6 CR30_LR_7 CR30_LR_8 CR30_LR_9 CR30_LR_10from9 CR30_LR_10"/> <!-- 1 -->
    <route id="460" edges="CR30_LR_4 CR30_LR_5 CR30_LR_6 CR30_LR_7 CR30_LR_8 CR30_LR_9 CR30_LR_10from9 CR30_LR_10 CR30_LR_11"/> <!-- 2 -->
    <route id="461" edges="CR30_LR_4 CR30_LR_5 CR30_LR_6 CR30_LR_7 CR30_LR_8 CR30_LR_9 CR30_LR_10from9 CR30_LR_10 CR30_LR_11 CR30_LR_12"/> <!-- 2 -->
    <route id="462" edges="CR30_LR_4 CR30_LR_5 CR30_LR_6 CR30_LR_7 CR30_LR_8 CR30_LR_9 CR30_LR_10from9 CR30_LR_10 CR30_LR_11 CR30_LR_12 CR30_LR_13"/> <!-- 2 -->
    <route id="463" edges="CR30_LR_4 CR30_LR_5 CR30_LR_6 CR30_LR_7 CR30_LR_8 CR30_LR_9 CR30_LR_10from9 CR30_LR_10 CR30_LR_11 CR30_LR_12 CR30_LR_13 CR30_LR_14"/> <!-- 3 -->