<?xml version="1.0" encoding="UTF-8"?>
<!-- generated on 2021-05-31 11:18:40.800186 by $Id$ v1_8_0+0044-4820708f3d
  options: -r random_routes.rou.xml -t d_4_turnCount_pm_offpeak_1.xml -o ..\rou\d_4_turnCount_pm_offpeak_1.rou.xml <doubleminus>write-route-ids
-->
<routes xmlns:xsi="http://www.w3.org/2001/XMLSchema-instance" xsi:noNamespaceSchemaLocation="http://sumo.dlr.de/xsd/routes_file.xsd">
<!-- begin="0.0" end="1800.0" -->
    <route id="3" edges="CR101_DU_1 CR101_DU_2 CR101_DU_3 CR101_DU_4 CR101_DU_5"/> <!-- 531 -->
    <route id="4" edges="CR101_DU_1 CR101_DU_2 CR101_DU_3 CR30_RL_16"/> <!-- 68 -->
    <route id="6" edges="CR101_DU_1 CR101_DU_2 CR101_DU_3R CR30_LR_4"/> <!-- 2 -->
    <route id="7" edges="CR101_DU_1 CR101_DU_2 CR101_DU_3R CR30_LR_4 CR30_LR_5"/> <!-- 5 -->
    <route id="8" edges="CR101_DU_1 CR101_DU_2 CR101_DU_3R CR30_LR_4 CR30_LR_5 CR30_LR_6"/> <!-- 10 -->
    <route id="9" edges="CR101_DU_1 CR101_DU_2 CR101_DU_3R CR30_LR_4 CR30_LR_5 CR30_LR_6 CR30_LR_7"/> <!-- 8 -->
    <route id="10" edges="CR101_DU_1 CR101_DU_2 CR101_DU_3R CR30_LR_4 CR30_LR_5 CR30_LR_6 CR30_LR_7 CR30_LR_8"/> <!-- 9 -->
    <route id="11" edges="CR101_DU_1 CR101_DU_2 CR101_DU_3R CR30_LR_4 CR30_LR_5 CR30_LR_6 CR30_LR_7 CR30_LR_8 CR30_LR_9"/> <!-- 7 -->
    <route id="12" edges="CR101_DU_1 CR101_DU_2 CR101_DU_3R CR30_LR_4 CR30_LR_5 CR30_LR_6 CR30_LR_7 CR30_LR_8 CR30_LR_9 CR30_LR_10from9"/> <!-- 5 -->
    <route id="13" edges="CR101_DU_1 CR101_DU_2 CR101_DU_3R CR30_LR_4 CR30_LR_5 CR30_LR_6 CR30_LR_7 CR30_LR_8 CR30_LR_9 CR30_LR_10from9 CR30_LR_10"/> <!-- 6 -->
    <route id="14" edges="CR101_DU_1 CR101_DU_2 CR101_DU_3R CR30_LR_4 CR30_LR_5 CR30_LR_6 CR30_LR_7 CR30_LR_8 CR30_LR_9 CR30_LR_10from9 CR30_LR_10 CR30_LR_11"/> <!-- 7 -->
    <route id="15" edges="CR101_DU_1 CR101_DU_2 CR101_DU_3R CR30_LR_4 CR30_LR_5 CR30_LR_6 CR30_LR_7 CR30_LR_8 CR30_LR_9 CR30_LR_10from9 CR30_LR_10 CR30_LR_11 CR30_LR_12"/> <!-- 3 -->
    <route id="16" edges="CR101_DU_1 CR101_DU_2 CR101_DU_3R CR30_LR_4 CR30_LR_5 CR30_LR_6 CR30_LR_7 CR30_LR_8 CR30_LR_9 CR30_LR_10from9 CR30_LR_10 CR30_LR_11 CR30_LR_12 CR30_LR_13"/> <!-- 6 -->
    <route id="17" edges="CR101_DU_1 CR101_DU_2 CR101_DU_3R CR30_LR_4 CR30_LR_5 CR30_LR_6 CR30_LR_7 CR30_LR_8 CR30_LR_9 CR30_LR_10from9 CR30_LR_10 CR30_LR_11 CR30_LR_12 CR30_LR_13 CR30_LR_14"/> <!-- 2 -->
    <route id="18" edges="CR101_DU_1 CR101_DU_2 CR101_DU_3R CR30_LR_4 CR30_LR_5 CR30_LR_6 CR30_LR_7 CR30_LR_8 CR30_LR_9 CR30_LR_10from9 CR30_LR_10 CR30_LR_11 CR30_LR_12 CR30_LR_13 CR30_LR_14 CR30_LR_15from14"/> <!-- 12 -->
    <route id="19" edges="CR101_DU_1 CR101_DU_2 CR101_DU_3R CR30_LR_4 CR30_LR_5 CR30_LR_6 CR30_LR_7 CR30_LR_8 CR30_LR_9 CR30_LR_10from9 CR30_LR_10 CR30_LR_11 CR30_LR_12 CR30_LR_13 CR30_LR_14 CR30_LR_15from14 CR30_LR_15"/> <!-- 9 -->
    <route id="20" edges="CR101_DU_1 CR101_DU_2 CR101_DU_3R CR30_LR_4 CR30_LR_5 CR30_LR_6 CR30_LR_7 CR30_LR_8 CR30_LR_9 CR30_LR_10from9 CR30_LR_10 CR30_LR_11 CR30_LR_12 CR30_LR_13 CR30_LR_14 CR30_LR_15from14 CR30_LR_15 CR30_LR_16"/> <!-- 11 -->
    <route id="21" edges="CR101_DU_1 CR101_DU_2 CR101_DU_3R CR30_LR_4 CR30_LR_5 CR30_LR_6 CR30_LR_7 CR30_LR_8 CR30_LR_9 CR30_LR_10from9 CR30_LR_10 CR30_LR_11 CR30_LR_12 CR30_LR_13 CR30_LR_14 CR30_LR_15from14 CR30_LR_15 GLN_DU_3"/> <!-- 2 -->
    <route id="22" edges="CR101_DU_1 CR101_DU_2 CR101_DU_3R CR30_LR_4 CR30_LR_5 CR30_LR_6 CR30_LR_7 CR30_LR_8 CR30_LR_9 CR30_LR_10from9 CR30_LR_10 CR30_LR_11 CR30_LR_12 CR30_LR_13 CR30_LR_14 CR30_LR_15from14 CR30_LR_15 GLN_DU_3 GLN_DU_4"/> <!-- 1 -->
    <route id="23" edges="CR101_DU_1 CR101_DU_2 CR101_DU_3R CR30_LR_4 CR30_LR_5 CR30_LR_6 CR30_LR_7 CR30_LR_8 CR30_LR_9 CR30_LR_10from9 CR30_LR_10 CR30_LR_11 CR30_LR_12 CR30_LR_13 CR30_LR_14 CR30_LR_15from14 CR30_LR_15 GLN_UD_3"/> <!-- 3 -->
    <route id="24" edges="CR101_DU_1 CR101_DU_2 CR101_DU_3R CR30_LR_4 CR30_LR_5 CR30_LR_6 CR30_LR_7 CR30_LR_8 CR30_LR_9 CR30_LR_10from9 CR30_LR_10 CR30_LR_11 CR30_LR_12 CR30_LR_13 CR30_LR_14 CR30_LR_15from14 CR30_LR_15 GLN_UD_3 GLN_UD_4"/> <!-- 5 -->
    <route id="25" edges="CR101_DU_1 CR101_DU_2 CR101_DU_3R CR30_LR_4 CR30_LR_5 CR30_LR_6 CR30_LR_7 CR30_LR_8 CR30_LR_9 CR30_LR_10from9 CR30_LR_10 CR30_LR_11 CR30_LR_12 CR30_LR_13 LLN_DU_3"/> <!-- 1 -->
    <route id="26" edges="CR101_DU_1 CR101_DU_2 CR101_DU_3R CR30_LR_4 CR30_LR_5 CR30_LR_6 CR30_LR_7 CR30_LR_8 CR30_LR_9 CR30_LR_10from9 CR30_LR_10 CR30_LR_11 CR30_LR_12 CR30_LR_13 LLN_UD_3"/> <!-- 5 -->
    <route id="27" edges="CR101_DU_1 CR101_DU_2 CR101_DU_3R CR30_LR_4 CR30_LR_5 CR30_LR_6 CR30_LR_7 CR30_LR_8 CR30_LR_9 CR30_LR_10from9 CR30_LR_10 CR30_LR_11 PLN_UD"/> <!-- 10 -->
    <route id="28" edges="CR101_DU_1 CR101_DU_2 CR101_DU_3R CR30_LR_4 CR30_LR_5 CR30_LR_6 CR30_LR_7 CR30_LR_8 CR30_LR_9 CR30_LR_10from9 QLN_UD"/> <!-- 3 -->
    <route id="34" edges="CR101_DU_1 CR101_DU_2 CR101_DU_3R CR30_LR_4 CR30_LR_5 CR30_LR_6 CR30_LR_7 CR30_LR_8 TLN_DU TLN_DU_2 TLN_UD_1 TLN_UD_2.1 TLN_UD_2 CR30_RL_9 CR30_RL_10"/> <!-- 1 -->
    <route id="43" edges="CR101_DU_1 CR101_DU_2 CR101_DU_3R CR30_LR_4 CR30_LR_5 CR30_LR_6 CR30_LR_7 CR30_LR_8 TLN_DU TLN_DU_2 TLN_UD_1 TLN_UD_2.1 TLN_UD_2 CR30_RL_9 CR30_RL_10 gneE34"/> <!-- 1 -->
    <route id="44" edges="CR101_DU_1 CR101_DU_2 CR101_DU_3R CR30_LR_4 CR30_LR_5 CR30_LR_6 WCN_UD"/> <!-- 6 -->
    <route id="45" edges="CR101_DU_1 CR101_DU_2 CR101_DU_3R CR30_LR_4 ZLN_UD"/> <!-- 4 -->
    <route id="57" edges="CR101_DU_2 CR101_DU_3R CR30_LR_4 CR30_LR_5 CR30_LR_6 CR30_LR_7 CR30_LR_8 CR30_LR_9"/> <!-- 1 -->
    <route id="58" edges="CR101_DU_2 CR101_DU_3R CR30_LR_4 CR30_LR_5 CR30_LR_6 CR30_LR_7 CR30_LR_8 CR30_LR_9 CR30_LR_10from9"/> <!-- 1 -->
    <route id="62" edges="CR101_DU_2 CR101_DU_3R CR30_LR_4 CR30_LR_5 CR30_LR_6 CR30_LR_7 CR30_LR_8 CR30_LR_9 CR30_LR_10from9 CR30_LR_10 CR30_LR_11 CR30_LR_12 CR30_LR_13"/> <!-- 2 -->
    <route id="63" edges="CR101_DU_2 CR101_DU_3R CR30_LR_4 CR30_LR_5 CR30_LR_6 CR30_LR_7 CR30_LR_8 CR30_LR_9 CR30_LR_10from9 CR30_LR_10 CR30_LR_11 CR30_LR_12 CR30_LR_13 CR30_LR_14"/> <!-- 1 -->
    <route id="65" edges="CR101_DU_2 CR101_DU_3R CR30_LR_4 CR30_LR_5 CR30_LR_6 CR30_LR_7 CR30_LR_8 CR30_LR_9 CR30_LR_10from9 CR30_LR_10 CR30_LR_11 CR30_LR_12 CR30_LR_13 CR30_LR_14 CR30_LR_15from14 CR30_LR_15"/> <!-- 1 -->
    <route id="66" edges="CR101_DU_2 CR101_DU_3R CR30_LR_4 CR30_LR_5 CR30_LR_6 CR30_LR_7 CR30_LR_8 CR30_LR_9 CR30_LR_10from9 CR30_LR_10 CR30_LR_11 CR30_LR_12 CR30_LR_13 CR30_LR_14 CR30_LR_15from14 CR30_LR_15 CR30_LR_16"/> <!-- 3 -->
    <route id="67" edges="CR101_DU_2 CR101_DU_3R CR30_LR_4 CR30_LR_5 CR30_LR_6 CR30_LR_7 CR30_LR_8 CR30_LR_9 CR30_LR_10from9 CR30_LR_10 CR30_LR_11 CR30_LR_12 CR30_LR_13 CR30_LR_14 CR30_LR_15from14 CR30_LR_15 GLN_DU_3"/> <!-- 1 -->
    <route id="68" edges="CR101_DU_2 CR101_DU_3R CR30_LR_4 CR30_LR_5 CR30_LR_6 CR30_LR_7 CR30_LR_8 CR30_LR_9 CR30_LR_10from9 CR30_LR_10 CR30_LR_11 CR30_LR_12 CR30_LR_13 CR30_LR_14 CR30_LR_15from14 CR30_LR_15 GLN_DU_3 GLN_DU_4"/> <!-- 1 -->
    <route id="69" edges="CR101_DU_2 CR101_DU_3R CR30_LR_4 CR30_LR_5 CR30_LR_6 CR30_LR_7 CR30_LR_8 CR30_LR_9 CR30_LR_10from9 CR30_LR_10 CR30_LR_11 CR30_LR_12 CR30_LR_13 CR30_LR_14 CR30_LR_15from14 CR30_LR_15 GLN_UD_3"/> <!-- 5 -->
    <route id="70" edges="CR101_DU_2 CR101_DU_3R CR30_LR_4 CR30_LR_5 CR30_LR_6 CR30_LR_7 CR30_LR_8 CR30_LR_9 CR30_LR_10from9 CR30_LR_10 CR30_LR_11 CR30_LR_12 CR30_LR_13 CR30_LR_14 CR30_LR_15from14 CR30_LR_15 GLN_UD_3 GLN_UD_4"/> <!-- 5 -->
    <route id="72" edges="CR101_DU_2 CR101_DU_3R CR30_LR_4 CR30_LR_5 CR30_LR_6 CR30_LR_7 CR30_LR_8 CR30_LR_9 CR30_LR_10from9 CR30_LR_10 CR30_LR_11 CR30_LR_12 CR30_LR_13 LLN_UD_3"/> <!-- 2 -->
    <route id="85" edges="CR101_DU_2 CR101_DU_3R CR30_LR_4 CR30_LR_5 CR30_LR_6 CR30_LR_7 CR30_LR_8 TLN_DU TLN_DU_2 TLN_UD_1 TLN_UD_2.1 TLN_UD_2 CR30_RL_9 CR30_RL_10 CR30_RL_11 CR30_RL_12 CR30_RL_13 CR30_RL_14 CR30_RL_15"/> <!-- 1 -->
    <route id="102" edges="CR101_DU_3R CR30_LR_4 CR30_LR_5 CR30_LR_6 CR30_LR_7 CR30_LR_8 CR30_LR_9"/> <!-- 1 -->
    <route id="105" edges="CR101_DU_3R CR30_LR_4 CR30_LR_5 CR30_LR_6 CR30_LR_7 CR30_LR_8 CR30_LR_9 CR30_LR_10from9 CR30_LR_10 CR30_LR_11"/> <!-- 2 -->
    <route id="106" edges="CR101_DU_3R CR30_LR_4 CR30_LR_5 CR30_LR_6 CR30_LR_7 CR30_LR_8 CR30_LR_9 CR30_LR_10from9 CR30_LR_10 CR30_LR_11 CR30_LR_12"/> <!-- 1 -->
    <route id="108" edges="CR101_DU_3R CR30_LR_4 CR30_LR_5 CR30_LR_6 CR30_LR_7 CR30_LR_8 CR30_LR_9 CR30_LR_10from9 CR30_LR_10 CR30_LR_11 CR30_LR_12 CR30_LR_13 CR30_LR_14"/> <!-- 2 -->
    <route id="109" edges="CR101_DU_3R CR30_LR_4 CR30_LR_5 CR30_LR_6 CR30_LR_7 CR30_LR_8 CR30_LR_9 CR30_LR_10from9 CR30_LR_10 CR30_LR_11 CR30_LR_12 CR30_LR_13 CR30_LR_14 CR30_LR_15from14"/> <!-- 1 -->
    <route id="111" edges="CR101_DU_3R CR30_LR_4 CR30_LR_5 CR30_LR_6 CR30_LR_7 CR30_LR_8 CR30_LR_9 CR30_LR_10from9 CR30_LR_10 CR30_LR_11 CR30_LR_12 CR30_LR_13 CR30_LR_14 CR30_LR_15from14 CR30_LR_15 CR30_LR_16"/> <!-- 7 -->
    <route id="113" edges="CR101_DU_3R CR30_LR_4 CR30_LR_5 CR30_LR_6 CR30_LR_7 CR30_LR_8 CR30_LR_9 CR30_LR_10from9 CR30_LR_10 CR30_LR_11 CR30_LR_12 CR30_LR_13 CR30_LR_14 CR30_LR_15from14 CR30_LR_15 GLN_DU_3 GLN_DU_4"/> <!-- 1 -->
    <route id="115" edges="CR101_DU_3R CR30_LR_4 CR30_LR_5 CR30_LR_6 CR30_LR_7 CR30_LR_8 CR30_LR_9 CR30_LR_10from9 CR30_LR_10 CR30_LR_11 CR30_LR_12 CR30_LR_13 CR30_LR_14 CR30_LR_15from14 CR30_LR_15 GLN_UD_3 GLN_UD_4"/> <!-- 3 -->
    <route id="117" edges="CR101_DU_3R CR30_LR_4 CR30_LR_5 CR30_LR_6 CR30_LR_7 CR30_LR_8 CR30_LR_9 CR30_LR_10from9 CR30_LR_10 CR30_LR_11 CR30_LR_12 CR30_LR_13 LLN_UD_3"/> <!-- 2 -->
    <route id="118" edges="CR101_DU_3R CR30_LR_4 CR30_LR_5 CR30_LR_6 CR30_LR_7 CR30_LR_8 CR30_LR_9 CR30_LR_10from9 CR30_LR_10 CR30_LR_11 PLN_UD"/> <!-- 1 -->
    <route id="142" edges="CR101_UD_1 CR101_UD_2 CR101_UD_3"/> <!-- 273 -->
    <route id="144" edges="CR101_UD_1 CR101_UD_2 CR30_LR_3 CR30_LR_4"/> <!-- 18 -->
    <route id="145" edges="CR101_UD_1 CR101_UD_2 CR30_LR_3 CR30_LR_4 CR30_LR_5"/> <!-- 17 -->
    <route id="146" edges="CR101_UD_1 CR101_UD_2 CR30_LR_3 CR30_LR_4 CR30_LR_5 CR30_LR_6"/> <!-- 16 -->
    <route id="147" edges="CR101_UD_1 CR101_UD_2 CR30_LR_3 CR30_LR_4 CR30_LR_5 CR30_LR_6 CR30_LR_7"/> <!-- 21 -->
    <route id="148" edges="CR101_UD_1 CR101_UD_2 CR30_LR_3 CR30_LR_4 CR30_LR_5 CR30_LR_6 CR30_LR_7 CR30_LR_8"/> <!-- 16 -->
    <route id="149" edges="CR101_UD_1 CR101_UD_2 CR30_LR_3 CR30_LR_4 CR30_LR_5 CR30_LR_6 CR30_LR_7 CR30_LR_8 CR30_LR_9"/> <!-- 13 -->
    <route id="150" edges="CR101_UD_1 CR101_UD_2 CR30_LR_3 CR30_LR_4 CR30_LR_5 CR30_LR_6 CR30_LR_7 CR30_LR_8 CR30_LR_9 CR30_LR_10from9"/> <!-- 5 -->
    <route id="151" edges="CR101_UD_1 CR101_UD_2 CR30_LR_3 CR30_LR_4 CR30_LR_5 CR30_LR_6 CR30_LR_7 CR30_LR_8 CR30_LR_9 CR30_LR_10from9 CR30_LR_10"/> <!-- 13 -->
    <route id="152" edges="CR101_UD_1 CR101_UD_2 CR30_LR_3 CR30_LR_4 CR30_LR_5 CR30_LR_6 CR30_LR_7 CR30_LR_8 CR30_LR_9 CR30_LR_10from9 CR30_LR_10 CR30_LR_11"/> <!-- 13 -->
    <route id="153" edges="CR101_UD_1 CR101_UD_2 CR30_LR_3 CR30_LR_4 CR30_LR_5 CR30_LR_6 CR30_LR_7 CR30_LR_8 CR30_LR_9 CR30_LR_10from9 CR30_LR_10 CR30_LR_11 CR30_LR_12"/> <!-- 10 -->
    <route id="154" edges="CR101_UD_1 CR101_UD_2 CR30_LR_3 CR30_LR_4 CR30_LR_5 CR30_LR_6 CR30_LR_7 CR30_LR_8 CR30_LR_9 CR30_LR_10from9 CR30_LR_10 CR30_LR_11 CR30_LR_12 CR30_LR_13"/> <!-- 13 -->
    <route id="155" edges="CR101_UD_1 CR101_UD_2 CR30_LR_3 CR30_LR_4 CR30_LR_5 CR30_LR_6 CR30_LR_7 CR30_LR_8 CR30_LR_9 CR30_LR_10from9 CR30_LR_10 CR30_LR_11 CR30_LR_12 CR30_LR_13 CR30_LR_14"/> <!-- 12 -->
    <route id="156" edges="CR101_UD_1 CR101_UD_2 CR30_LR_3 CR30_LR_4 CR30_LR_5 CR30_LR_6 CR30_LR_7 CR30_LR_8 CR30_LR_9 CR30_LR_10from9 CR30_LR_10 CR30_LR_11 CR30_LR_12 CR30_LR_13 CR30_LR_14 CR30_LR_15from14"/> <!-- 10 -->
    <route id="157" edges="CR101_UD_1 CR101_UD_2 CR30_LR_3 CR30_LR_4 CR30_LR_5 CR30_LR_6 CR30_LR_7 CR30_LR_8 CR30_LR_9 CR30_LR_10from9 CR30_LR_10 CR30_LR_11 CR30_LR_12 CR30_LR_13 CR30_LR_14 CR30_LR_15from14 CR30_LR_15"/> <!-- 22 -->
    <route id="158" edges="CR101_UD_1 CR101_UD_2 CR30_LR_3 CR30_LR_4 CR30_LR_5 CR30_LR_6 CR30_LR_7 CR30_LR_8 CR30_LR_9 CR30_LR_10from9 CR30_LR_10 CR30_LR_11 CR30_LR_12 CR30_LR_13 CR30_LR_14 CR30_LR_15from14 CR30_LR_15 CR30_LR_16"/> <!-- 13 -->
    <route id="160" edges="CR101_UD_1 CR101_UD_2 CR30_LR_3 CR30_LR_4 CR30_LR_5 CR30_LR_6 CR30_LR_7 CR30_LR_8 CR30_LR_9 CR30_LR_10from9 CR30_LR_10 CR30_LR_11 CR30_LR_12 CR30_LR_13 CR30_LR_14 CR30_LR_15from14 CR30_LR_15 GLN_DU_3 GLN_DU_4"/> <!-- 1 -->
    <route id="161" edges="CR101_UD_1 CR101_UD_2 CR30_LR_3 CR30_LR_4 CR30_LR_5 CR30_LR_6 CR30_LR_7 CR30_LR_8 CR30_LR_9 CR30_LR_10from9 CR30_LR_10 CR30_LR_11 CR30_LR_12 CR30_LR_13 CR30_LR_14 CR30_LR_15from14 CR30_LR_15 GLN_UD_3"/> <!-- 9 -->
    <route id="162" edges="CR101_UD_1 CR101_UD_2 CR30_LR_3 CR30_LR_4 CR30_LR_5 CR30_LR_6 CR30_LR_7 CR30_LR_8 CR30_LR_9 CR30_LR_10from9 CR30_LR_10 CR30_LR_11 CR30_LR_12 CR30_LR_13 CR30_LR_14 CR30_LR_15from14 CR30_LR_15 GLN_UD_3 GLN_UD_4"/> <!-- 7 -->
    <route id="164" edges="CR101_UD_1 CR101_UD_2 CR30_LR_3 CR30_LR_4 CR30_LR_5 CR30_LR_6 CR30_LR_7 CR30_LR_8 CR30_LR_9 CR30_LR_10from9 CR30_LR_10 CR30_LR_11 CR30_LR_12 CR30_LR_13 LLN_UD_3"/> <!-- 4 -->
    <route id="165" edges="CR101_UD_1 CR101_UD_2 CR30_LR_3 CR30_LR_4 CR30_LR_5 CR30_LR_6 CR30_LR_7 CR30_LR_8 CR30_LR_9 CR30_LR_10from9 CR30_LR_10 CR30_LR_11 PLN_UD"/> <!-- 13 -->
    <route id="166" edges="CR101_UD_1 CR101_UD_2 CR30_LR_3 CR30_LR_4 CR30_LR_5 CR30_LR_6 CR30_LR_7 CR30_LR_8 CR30_LR_9 CR30_LR_10from9 QLN_UD"/> <!-- 7 -->
    <route id="169" edges="CR101_UD_1 CR101_UD_2 CR30_LR_3 CR30_LR_4 CR30_LR_5 CR30_LR_6 CR30_LR_7 CR30_LR_8 TLN_DU TLN_DU_2 TLN_UD_1 TLN_UD_2.1"/> <!-- 1 -->
    <route id="182" edges="CR101_UD_1 CR101_UD_2 CR30_LR_3 CR30_LR_4 CR30_LR_5 CR30_LR_6 WCN_UD"/> <!-- 13 -->
    <route id="183" edges="CR101_UD_1 CR101_UD_2 CR30_LR_3 CR30_LR_4 ZLN_UD"/> <!-- 18 -->
    <route id="184" edges="CR101_UD_1 CR101_UD_2 CR30_RL_16"/> <!-- 118 -->
    <route id="193" edges="CR101_UD_2 CR30_LR_3 CR30_LR_4 CR30_LR_5 CR30_LR_6 CR30_LR_7 CR30_LR_8 CR30_LR_9"/> <!-- 1 -->
    <route id="194" edges="CR101_UD_2 CR30_LR_3 CR30_LR_4 CR30_LR_5 CR30_LR_6 CR30_LR_7 CR30_LR_8 CR30_LR_9 CR30_LR_10from9"/> <!-- 2 -->
    <route id="195" edges="CR101_UD_2 CR30_LR_3 CR30_LR_4 CR30_LR_5 CR30_LR_6 CR30_LR_7 CR30_LR_8 CR30_LR_9 CR30_LR_10from9 CR30_LR_10"/> <!-- 1 -->
    <route id="199" edges="CR101_UD_2 CR30_LR_3 CR30_LR_4 CR30_LR_5 CR30_LR_6 CR30_LR_7 CR30_LR_8 CR30_LR_9 CR30_LR_10from9 CR30_LR_10 CR30_LR_11 CR30_LR_12 CR30_LR_13 CR30_LR_14"/> <!-- 2 -->
    <route id="200" edges="CR101_UD_2 CR30_LR_3 CR30_LR_4 CR30_LR_5 CR30_LR_6 CR30_LR_7 CR30_LR_8 CR30_LR_9 CR30_LR_10from9 CR30_LR_10 CR30_LR_11 CR30_LR_12 CR30_LR_13 CR30_LR_14 CR30_LR_15from14"/> <!-- 2 -->
    <route id="201" edges="CR101_UD_2 CR30_LR_3 CR30_LR_4 CR30_LR_5 CR30_LR_6 CR30_LR_7 CR30_LR_8 CR30_LR_9 CR30_LR_10from9 CR30_LR_10 CR30_LR_11 CR30_LR_12 CR30_LR_13 CR30_LR_14 CR30_LR_15from14 CR30_LR_15"/> <!-- 2 -->
    <route id="202" edges="CR101_UD_2 CR30_LR_3 CR30_LR_4 CR30_LR_5 CR30_LR_6 CR30_LR_7 CR30_LR_8 CR30_LR_9 CR30_LR_10from9 CR30_LR_10 CR30_LR_11 CR30_LR_12 CR30_LR_13 CR30_LR_14 CR30_LR_15from14 CR30_LR_15 CR30_LR_16"/> <!-- 5 -->
    <route id="204" edges="CR101_UD_2 CR30_LR_3 CR30_LR_4 CR30_LR_5 CR30_LR_6 CR30_LR_7 CR30_LR_8 CR30_LR_9 CR30_LR_10from9 CR30_LR_10 CR30_LR_11 CR30_LR_12 CR30_LR_13 CR30_LR_14 CR30_LR_15from14 CR30_LR_15 GLN_DU_3 GLN_DU_4"/> <!-- 1 -->
    <route id="206" edges="CR101_UD_2 CR30_LR_3 CR30_LR_4 CR30_LR_5 CR30_LR_6 CR30_LR_7 CR30_LR_8 CR30_LR_9 CR30_LR_10from9 CR30_LR_10 CR30_LR_11 CR30_LR_12 CR30_LR_13 CR30_LR_14 CR30_LR_15from14 CR30_LR_15 GLN_UD_3 GLN_UD_4"/> <!-- 4 -->
    <route id="208" edges="CR101_UD_2 CR30_LR_3 CR30_LR_4 CR30_LR_5 CR30_LR_6 CR30_LR_7 CR30_LR_8 CR30_LR_9 CR30_LR_10from9 CR30_LR_10 CR30_LR_11 CR30_LR_12 CR30_LR_13 LLN_UD_3"/> <!-- 2 -->
    <route id="209" edges="CR101_UD_2 CR30_LR_3 CR30_LR_4 CR30_LR_5 CR30_LR_6 CR30_LR_7 CR30_LR_8 CR30_LR_9 CR30_LR_10from9 CR30_LR_10 CR30_LR_11 PLN_UD"/> <!-- 1 -->
    <route id="210" edges="CR101_UD_2 CR30_LR_3 CR30_LR_4 CR30_LR_5 CR30_LR_6 CR30_LR_7 CR30_LR_8 CR30_LR_9 CR30_LR_10from9 QLN_UD"/> <!-- 1 -->
    <route id="215" edges="CR101_UD_2 CR30_LR_3 CR30_LR_4 CR30_LR_5 CR30_LR_6 CR30_LR_7 CR30_LR_8 TLN_DU TLN_DU_2 TLN_UD_1 TLN_UD_2.1 TLN_UD_2 CR30_RL_9"/> <!-- 1 -->
    <route id="231" edges="CR30_LR_1 CR30_LR_2 CR101_DU_4 CR101_DU_5"/> <!-- 108 -->
    <route id="232" edges="CR30_LR_1 CR30_LR_2 CR101_UD_3"/> <!-- 25 -->
    <route id="234" edges="CR30_LR_1 CR30_LR_2 CR30_LR_3 CR30_LR_4"/> <!-- 119 -->
    <route id="235" edges="CR30_LR_1 CR30_LR_2 CR30_LR_3 CR30_LR_4 CR30_LR_5"/> <!-- 140 -->
    <route id="236" edges="CR30_LR_1 CR30_LR_2 CR30_LR_3 CR30_LR_4 CR30_LR_5 CR30_LR_6"/> <!-- 127 -->
    <route id="237" edges="CR30_LR_1 CR30_LR_2 CR30_LR_3 CR30_LR_4 CR30_LR_5 CR30_LR_6 CR30_LR_7"/> <!-- 133 -->
    <route id="238" edges="CR30_LR_1 CR30_LR_2 CR30_LR_3 CR30_LR_4 CR30_LR_5 CR30_LR_6 CR30_LR_7 CR30_LR_8"/> <!-- 153 -->
    <route id="239" edges="CR30_LR_1 CR30_LR_2 CR30_LR_3 CR30_LR_4 CR30_LR_5 CR30_LR_6 CR30_LR_7 CR30_LR_8 CR30_LR_9"/> <!-- 5 -->
    <route id="240" edges="CR30_LR_1 CR30_LR_2 CR30_LR_3 CR30_LR_4 CR30_LR_5 CR30_LR_6 CR30_LR_7 CR30_LR_8 CR30_LR_9 CR30_LR_10from9"/> <!-- 13 -->
    <route id="241" edges="CR30_LR_1 CR30_LR_2 CR30_LR_3 CR30_LR_4 CR30_LR_5 CR30_LR_6 CR30_LR_7 CR30_LR_8 CR30_LR_9 CR30_LR_10from9 CR30_LR_10"/> <!-- 14 -->
    <route id="242" edges="CR30_LR_1 CR30_LR_2 CR30_LR_3 CR30_LR_4 CR30_LR_5 CR30_LR_6 CR30_LR_7 CR30_LR_8 CR30_LR_9 CR30_LR_10from9 CR30_LR_10 CR30_LR_11"/> <!-- 12 -->
    <route id="243" edges="CR30_LR_1 CR30_LR_2 CR30_LR_3 CR30_LR_4 CR30_LR_5 CR30_LR_6 CR30_LR_7 CR30_LR_8 CR30_LR_9 CR30_LR_10from9 CR30_LR_10 CR30_LR_11 CR30_LR_12"/> <!-- 6 -->
    <route id="244" edges="CR30_LR_1 CR30_LR_2 CR30_LR_3 CR30_LR_4 CR30_LR_5 CR30_LR_6 CR30_LR_7 CR30_LR_8 CR30_LR_9 CR30_LR_10from9 CR30_LR_10 CR30_LR_11 CR30_LR_12 CR30_LR_13"/> <!-- 13 -->
    <route id="245" edges="CR30_LR_1 CR30_LR_2 CR30_LR_3 CR30_LR_4 CR30_LR_5 CR30_LR_6 CR30_LR_7 CR30_LR_8 CR30_LR_9 CR30_LR_10from9 CR30_LR_10 CR30_LR_11 CR30_LR_12 CR30_LR_13 CR30_LR_14"/> <!-- 11 -->
    <route id="246" edges="CR30_LR_1 CR30_LR_2 CR30_LR_3 CR30_LR_4 CR30_LR_5 CR30_LR_6 CR30_LR_7 CR30_LR_8 CR30_LR_9 CR30_LR_10from9 CR30_LR_10 CR30_LR_11 CR30_LR_12 CR30_LR_13 CR30_LR_14 CR30_LR_15from14"/> <!-- 8 -->
    <route id="247" edges="CR30_LR_1 CR30_LR_2 CR30_LR_3 CR30_LR_4 CR30_LR_5 CR30_LR_6 CR30_LR_7 CR30_LR_8 CR30_LR_9 CR30_LR_10from9 CR30_LR_10 CR30_LR_11 CR30_LR_12 CR30_LR_13 CR30_LR_14 CR30_LR_15from14 CR30_LR_15"/> <!-- 14 -->
    <route id="248" edges="CR30_LR_1 CR30_LR_2 CR30_LR_3 CR30_LR_4 CR30_LR_5 CR30_LR_6 CR30_LR_7 CR30_LR_8 CR30_LR_9 CR30_LR_10from9 CR30_LR_10 CR30_LR_11 CR30_LR_12 CR30_LR_13 CR30_LR_14 CR30_LR_15from14 CR30_LR_15 CR30_LR_16"/> <!-- 14 -->
    <route id="249" edges="CR30_LR_1 CR30_LR_2 CR30_LR_3 CR30_LR_4 CR30_LR_5 CR30_LR_6 CR30_LR_7 CR30_LR_8 CR30_LR_9 CR30_LR_10from9 CR30_LR_10 CR30_LR_11 CR30_LR_12 CR30_LR_13 CR30_LR_14 CR30_LR_15from14 CR30_LR_15 GLN_DU_3"/> <!-- 1 -->
    <route id="250" edges="CR30_LR_1 CR30_LR_2 CR30_LR_3 CR30_LR_4 CR30_LR_5 CR30_LR_6 CR30_LR_7 CR30_LR_8 CR30_LR_9 CR30_LR_10from9 CR30_LR_10 CR30_LR_11 CR30_LR_12 CR30_LR_13 CR30_LR_14 CR30_LR_15from14 CR30_LR_15 GLN_DU_3 GLN_DU_4"/> <!-- 2 -->
    <route id="251" edges="CR30_LR_1 CR30_LR_2 CR30_LR_3 CR30_LR_4 CR30_LR_5 CR30_LR_6 CR30_LR_7 CR30_LR_8 CR30_LR_9 CR30_LR_10from9 CR30_LR_10 CR30_LR_11 CR30_LR_12 CR30_LR_13 CR30_LR_14 CR30_LR_15from14 CR30_LR_15 GLN_UD_3"/> <!-- 5 -->
    <route id="252" edges="CR30_LR_1 CR30_LR_2 CR30_LR_3 CR30_LR_4 CR30_LR_5 CR30_LR_6 CR30_LR_7 CR30_LR_8 CR30_LR_9 CR30_LR_10from9 CR30_LR_10 CR30_LR_11 CR30_LR_12 CR30_LR_13 CR30_LR_14 CR30_LR_15from14 CR30_LR_15 GLN_UD_3 GLN_UD_4"/> <!-- 4 -->
    <route id="253" edges="CR30_LR_1 CR30_LR_2 CR30_LR_3 CR30_LR_4 CR30_LR_5 CR30_LR_6 CR30_LR_7 CR30_LR_8 CR30_LR_9 CR30_LR_10from9 CR30_LR_10 CR30_LR_11 CR30_LR_12 CR30_LR_13 LLN_DU_3"/> <!-- 1 -->
    <route id="255" edges="CR30_LR_1 CR30_LR_2 CR30_LR_3 CR30_LR_4 CR30_LR_5 CR30_LR_6 CR30_LR_7 CR30_LR_8 CR30_LR_9 CR30_LR_10from9 CR30_LR_10 CR30_LR_11 PLN_UD"/> <!-- 11 -->
    <route id="256" edges="CR30_LR_1 CR30_LR_2 CR30_LR_3 CR30_LR_4 CR30_LR_5 CR30_LR_6 CR30_LR_7 CR30_LR_8 CR30_LR_9 CR30_LR_10from9 QLN_UD"/> <!-- 15 -->
    <route id="261" edges="CR30_LR_1 CR30_LR_2 CR30_LR_3 CR30_LR_4 CR30_LR_5 CR30_LR_6 CR30_LR_7 CR30_LR_8 TLN_DU TLN_DU_2 TLN_UD_1 TLN_UD_2.1 TLN_UD_2 CR30_RL_9"/> <!-- 1 -->
    <route id="268" edges="CR30_LR_1 CR30_LR_2 CR30_LR_3 CR30_LR_4 CR30_LR_5 CR30_LR_6 CR30_LR_7 CR30_LR_8 TLN_DU TLN_DU_2 TLN_UD_1 TLN_UD_2.1 TLN_UD_2 CR30_RL_9 CR30_RL_10 CR30_RL_11 CR30_RL_12 CR30_RL_13 CR30_RL_14 CR30_RL_15 CR30_RL_16"/> <!-- 2 -->
    <route id="272" edges="CR30_LR_1 CR30_LR_2 CR30_LR_3 CR30_LR_4 CR30_LR_5 CR30_LR_6 WCN_UD"/> <!-- 141 -->
    <route id="273" edges="CR30_LR_1 CR30_LR_2 CR30_LR_3 CR30_LR_4 ZLN_UD"/> <!-- 137 -->
    <route id="278" edges="CR30_LR_10 CR30_LR_11 CR30_LR_12 CR30_LR_13 CR30_LR_14"/> <!-- 10 -->
    <route id="279" edges="CR30_LR_10 CR30_LR_11 CR30_LR_12 CR30_LR_13 CR30_LR_14 CR30_LR_15from14"/> <!-- 6 -->
    <route id="280" edges="CR30_LR_10 CR30_LR_11 CR30_LR_12 CR30_LR_13 CR30_LR_14 CR30_LR_15from14 CR30_LR_15"/> <!-- 9 -->
    <route id="281" edges="CR30_LR_10 CR30_LR_11 CR30_LR_12 CR30_LR_13 CR30_LR_14 CR30_LR_15from14 CR30_LR_15 CR30_LR_16"/> <!-- 40 -->
    <route id="282" edges="CR30_LR_10 CR30_LR_11 CR30_LR_12 CR30_LR_13 CR30_LR_14 CR30_LR_15from14 CR30_LR_15 GLN_DU_3"/> <!-- 3 -->
    <route id="294" edges="CR30_LR_10from9 CR30_LR_10 CR30_LR_11 CR30_LR_12 CR30_LR_13 CR30_LR_14"/> <!-- 11 -->
    <route id="295" edges="CR30_LR_10from9 CR30_LR_10 CR30_LR_11 CR30_LR_12 CR30_LR_13 CR30_LR_14 CR30_LR_15from14"/> <!-- 7 -->
    <route id="296" edges="CR30_LR_10from9 CR30_LR_10 CR30_LR_11 CR30_LR_12 CR30_LR_13 CR30_LR_14 CR30_LR_15from14 CR30_LR_15"/> <!-- 7 -->
    <route id="297" edges="CR30_LR_10from9 CR30_LR_10 CR30_LR_11 CR30_LR_12 CR30_LR_13 CR30_LR_14 CR30_LR_15from14 CR30_LR_15 CR30_LR_16"/> <!-- 38 -->
    <route id="300" edges="CR30_LR_10from9 CR30_LR_10 CR30_LR_11 CR30_LR_12 CR30_LR_13 CR30_LR_14 CR30_LR_15from14 CR30_LR_15 GLN_UD_3"/> <!-- 1 -->
    <route id="301" edges="CR30_LR_10from9 CR30_LR_10 CR30_LR_11 CR30_LR_12 CR30_LR_13 CR30_LR_14 CR30_LR_15from14 CR30_LR_15 GLN_UD_3 GLN_UD_4"/> <!-- 1 -->
    <route id="303" edges="CR30_LR_10from9 CR30_LR_10 CR30_LR_11 CR30_LR_12 CR30_LR_13 LLN_UD_3"/> <!-- 1 -->
    <route id="309" edges="CR30_LR_11 CR30_LR_12 CR30_LR_13 CR30_LR_14"/> <!-- 8 -->
    <route id="310" edges="CR30_LR_11 CR30_LR_12 CR30_LR_13 CR30_LR_14 CR30_LR_15from14"/> <!-- 11 -->
    <route id="311" edges="CR30_LR_11 CR30_LR_12 CR30_LR_13 CR30_LR_14 CR30_LR_15from14 CR30_LR_15"/> <!-- 12 -->
    <route id="312" edges="CR30_LR_11 CR30_LR_12 CR30_LR_13 CR30_LR_14 CR30_LR_15from14 CR30_LR_15 CR30_LR_16"/> <!-- 45 -->
    <route id="313" edges="CR30_LR_11 CR30_LR_12 CR30_LR_13 CR30_LR_14 CR30_LR_15from14 CR30_LR_15 GLN_DU_3"/> <!-- 1 -->
    <route id="315" edges="CR30_LR_11 CR30_LR_12 CR30_LR_13 CR30_LR_14 CR30_LR_15from14 CR30_LR_15 GLN_UD_3"/> <!-- 3 -->
    <route id="318" edges="CR30_LR_11 CR30_LR_12 CR30_LR_13 LLN_UD_3"/> <!-- 1 -->
    <route id="322" edges="CR30_LR_12 CR30_LR_13 CR30_LR_14"/> <!-- 10 -->
    <route id="323" edges="CR30_LR_12 CR30_LR_13 CR30_LR_14 CR30_LR_15from14"/> <!-- 12 -->
    <route id="324" edges="CR30_LR_12 CR30_LR_13 CR30_LR_14 CR30_LR_15from14 CR30_LR_15"/> <!-- 10 -->
    <route id="325" edges="CR30_LR_12 CR30_LR_13 CR30_LR_14 CR30_LR_15from14 CR30_LR_15 CR30_LR_16"/> <!-- 38 -->
    <route id="326" edges="CR30_LR_12 CR30_LR_13 CR30_LR_14 CR30_LR_15from14 CR30_LR_15 GLN_DU_3"/> <!-- 2 -->
    <route id="327" edges="CR30_LR_12 CR30_LR_13 CR30_LR_14 CR30_LR_15from14 CR30_LR_15 GLN_DU_3 GLN_DU_4"/> <!-- 2 -->
    <route id="328" edges="CR30_LR_12 CR30_LR_13 CR30_LR_14 CR30_LR_15from14 CR30_LR_15 GLN_UD_3"/> <!-- 1 -->
    <route id="333" edges="CR30_LR_13 CR30_LR_14"/> <!-- 5 -->
    <route id="334" edges="CR30_LR_13 CR30_LR_14 CR30_LR_15from14"/> <!-- 9 -->
    <route id="335" edges="CR30_LR_13 CR30_LR_14 CR30_LR_15from14 CR30_LR_15"/> <!-- 13 -->
    <route id="336" edges="CR30_LR_13 CR30_LR_14 CR30_LR_15from14 CR30_LR_15 CR30_LR_16"/> <!-- 50 -->
    <route id="338" edges="CR30_LR_13 CR30_LR_14 CR30_LR_15from14 CR30_LR_15 GLN_DU_3 GLN_DU_4"/> <!-- 1 -->
    <route id="346" edges="CR30_LR_14 CR30_LR_15from14 CR30_LR_15 CR30_LR_16"/> <!-- 152 -->
    <route id="349" edges="CR30_LR_14 CR30_LR_15from14 CR30_LR_15 GLN_UD_3"/> <!-- 1 -->
    <route id="350" edges="CR30_LR_14 CR30_LR_15from14 CR30_LR_15 GLN_UD_3 GLN_UD_4"/> <!-- 1 -->
    <route id="352" edges="CR30_LR_15 CR30_LR_16"/> <!-- 168 -->
    <route id="353" edges="CR30_LR_15 GLN_DU_3"/> <!-- 1 -->
    <route id="355" edges="CR30_LR_15 GLN_UD_3"/> <!-- 1 -->
    <route id="356" edges="CR30_LR_15 GLN_UD_3 GLN_UD_4"/> <!-- 1 -->
    <route id="359" edges="CR30_LR_15from14 CR30_LR_15 CR30_LR_16"/> <!-- 172 -->
    <route id="363" edges="CR30_LR_15from14 CR30_LR_15 GLN_UD_3 GLN_UD_4"/> <!-- 1 -->
    <route id="380" edges="CR30_LR_2 CR30_LR_3 CR30_LR_4 CR30_LR_5 CR30_LR_6 CR30_LR_7 CR30_LR_8 CR30_LR_9 CR30_LR_10from9 CR30_LR_10 CR30_LR_11 CR30_LR_12 CR30_LR_13 CR30_LR_14"/> <!-- 2 -->
    <route id="381" edges="CR30_LR_2 CR30_LR_3 CR30_LR_4 CR30_LR_5 CR30_LR_6 CR30_LR_7 CR30_LR_8 CR30_LR_9 CR30_LR_10from9 CR30_LR_10 CR30_LR_11 CR30_LR_12 CR30_LR_13 CR30_LR_14 CR30_LR_15from14"/> <!-- 5 -->
    <route id="382" edges="CR30_LR_2 CR30_LR_3 CR30_LR_4 CR30_LR_5 CR30_LR_6 CR30_LR_7 CR30_LR_8 CR30_LR_9 CR30_LR_10from9 CR30_LR_10 CR30_LR_11 CR30_LR_12 CR30_LR_13 CR30_LR_14 CR30_LR_15from14 CR30_LR_15"/> <!-- 2 -->
    <route id="383" edges="CR30_LR_2 CR30_LR_3 CR30_LR_4 CR30_LR_5 CR30_LR_6 CR30_LR_7 CR30_LR_8 CR30_LR_9 CR30_LR_10from9 CR30_LR_10 CR30_LR_11 CR30_LR_12 CR30_LR_13 CR30_LR_14 CR30_LR_15from14 CR30_LR_15 CR30_LR_16"/> <!-- 5 -->
    <route id="384" edges="CR30_LR_2 CR30_LR_3 CR30_LR_4 CR30_LR_5 CR30_LR_6 CR30_LR_7 CR30_LR_8 CR30_LR_9 CR30_LR_10from9 CR30_LR_10 CR30_LR_11 CR30_LR_12 CR30_LR_13 CR30_LR_14 CR30_LR_15from14 CR30_LR_15 GLN_DU_3"/> <!-- 2 -->
    <route id="385" edges="CR30_LR_2 CR30_LR_3 CR30_LR_4 CR30_LR_5 CR30_LR_6 CR30_LR_7 CR30_LR_8 CR30_LR_9 CR30_LR_10from9 CR30_LR_10 CR30_LR_11 CR30_LR_12 CR30_LR_13 CR30_LR_14 CR30_LR_15from14 CR30_LR_15 GLN_DU_3 GLN_DU_4"/> <!-- 1 -->
    <route id="386" edges="CR30_LR_2 CR30_LR_3 CR30_LR_4 CR30_LR_5 CR30_LR_6 CR30_LR_7 CR30_LR_8 CR30_LR_9 CR30_LR_10from9 CR30_LR_10 CR30_LR_11 CR30_LR_12 CR30_LR_13 CR30_LR_14 CR30_LR_15from14 CR30_LR_15 GLN_UD_3"/> <!-- 2 -->
    <route id="389" edges="CR30_LR_2 CR30_LR_3 CR30_LR_4 CR30_LR_5 CR30_LR_6 CR30_LR_7 CR30_LR_8 CR30_LR_9 CR30_LR_10from9 CR30_LR_10 CR30_LR_11 CR30_LR_12 CR30_LR_13 LLN_UD_3"/> <!-- 2 -->
    <route id="417" edges="CR30_LR_3 CR30_LR_4 CR30_LR_5 CR30_LR_6 CR30_LR_7 CR30_LR_8 CR30_LR_9 CR30_LR_10from9 CR30_LR_10"/> <!-- 1 -->
    <route id="418" edges="CR30_LR_3 CR30_LR_4 CR30_LR_5 CR30_LR_6 CR30_LR_7 CR30_LR_8 CR30_LR_9 CR30_LR_10from9 CR30_LR_10 CR30_LR_11"/> <!-- 1 -->
    <route id="419" edges="CR30_LR_3 CR30_LR_4 CR30_LR_5 CR30_LR_6 CR30_LR_7 CR30_LR_8 CR30_LR_9 CR30_LR_10from9 CR30_LR_10 CR30_LR_11 CR30_LR_12"/> <!-- 1 -->
    <route id="421" edges="CR30_LR_3 CR30_LR_4 CR30_LR_5 CR30_LR_6 CR30_LR_7 CR30_LR_8 CR30_LR_9 CR30_LR_10from9 CR30_LR_10 CR30_LR_11 CR30_LR_12 CR30_LR_13 CR30_LR_14"/> <!-- 1 -->
    <route id="422" edges="CR30_LR_3 CR30_LR_4 CR30_LR_5 CR30_LR_6 CR30_LR_7 CR30_LR_8 CR30_LR_9 CR30_LR_10from9 CR30_LR_10 CR30_LR_11 CR30_LR_12 CR30_LR_13 CR30_LR_14 CR30_LR_15from14"/> <!-- 1 -->
    <route id="423" edges="CR30_LR_3 CR30_LR_4 CR30_LR_5 CR30_LR_6 CR30_LR_7 CR30_LR_8 CR30_LR_9 CR30_LR_10from9 CR30_LR_10 CR30_LR_11 CR30_LR_12 CR30_LR_13 CR30_LR_14 CR30_LR_15from14 CR30_LR_15"/> <!-- 1 -->
    <route id="424" edges="CR30_LR_3 CR30_LR_4 CR30_LR_5 CR30_LR_6 CR30_LR_7 CR30_LR_8 CR30_LR_9 CR30_LR_10from9 CR30_LR_10 CR30_LR_11 CR30_LR_12 CR30_LR_13 CR30_LR_14 CR30_LR_15from14 CR30_LR_15 CR30_LR_16"/> <!-- 6 -->
    <route id="426" edges="CR30_LR_3 CR30_LR_4 CR30_LR_5 CR30_LR_6 CR30_LR_7 CR30_LR_8 CR30_LR_9 CR30_LR_10from9 CR30_LR_10 CR30_LR_11 CR30_LR_12 CR30_LR_13 CR30_LR_14 CR30_LR_15from14 CR30_LR_15 GLN_DU_3 GLN_DU_4"/> <!-- 2 -->
    <route id="445" edges="CR30_LR_3 CR30_LR_4 CR30_LR_5 CR30_LR_6 CR30_LR_7 CR30_LR_8 TLN_DU TLN_DU_2 TLN_UD_1 TLN_UD_2.1 TLN_UD_2 CR30_RL_9 CR30_RL_10 CR30_RL_11 CR30_RL_12 CR30_RL_13 CR30_RL_14 CR30_RL_15 CR30_RL_16"/> <!-- 1 -->
    <route id="457" edges="CR30_LR_4 CR30_LR_5 CR30_LR_6 CR30_LR_7 CR30_LR_8 CR30_LR_9"/> <!-- 1 -->
    <route id="458" edges="CR30_LR_4 CR30_LR_5 CR30_LR_6 CR30_LR_7 CR30_LR_8 CR30_LR_9 CR30_LR_10from9"/> <!-- 1 -->
    <route id="460" edges="CR30_LR_4 CR30_LR_5 CR30_LR_6 CR30_LR_7 CR30_LR_8 CR30_LR_9 CR30_LR_10from9 CR30_LR_10 CR30_LR_11"/> <!-- 1 -->
    <route id="462" edges="CR30_LR_4 CR30_LR_5 CR30_LR_6 CR30_LR_7 CR30_LR_8 CR30_LR_9 CR30_LR_10from9 CR30_LR_10 CR30_LR_11 CR30_LR_12 CR30_LR_13"/> <!-- 1 -->
    <route id="464" edges="CR30_LR_4 CR30_LR_5 CR30_LR_6 CR30_LR_7 CR30_LR_8 CR30_LR_9 CR30_LR_10from9 CR30_LR_10 CR30_LR_11 CR30_LR_12 CR30_LR_13 CR30_LR_14 CR30_LR_15from14"/> <!-- 1 -->
    <route id="466" edges="CR30_LR_4 CR30_LR_5 CR30_LR_6 CR30_LR_7 CR30_LR_8 CR30_LR_9 CR30_LR_10from9 CR30_LR_10 CR30_LR_11 CR30_LR_12 CR30_LR_13 CR30_LR_14 CR30_LR_15from14 CR30_LR_15 CR30_LR_16"/> <!-- 8 -->
    <route id="469" edges="CR30_LR_4 CR30_LR_5 CR30_LR_6 CR30_LR_7 CR30_LR_8 CR30_LR_9 CR30_LR_10from9 CR30_LR_10 CR30_LR_11 CR30_LR_12 CR30_LR_13 CR30_LR_14 CR30_LR_15from14 CR30_LR_15 GLN_UD_3"/> <!-- 1 -->
    <route id="470" edges="CR30_LR_4 CR30_LR_5 CR30_LR_6 CR30_LR_7 CR30_LR_8 CR30_LR_9 CR30_LR_10from9 CR30_LR_10 CR30_LR_11 CR30_LR_12 CR30_LR_13 CR30_LR_14 CR30_LR_15from14 CR30_LR_15 GLN_UD_3 GLN_UD_4"/> <!-- 2 -->