<?xml version="1.0" encoding="UTF-8"?>
<!-- generated on 2021-05-31 11:18:44.251352 by $Id$ v1_8_0+0044-4820708f3d
  options: -r random_routes.rou.xml -t d_5_turnCount_pm_peak.xml -o ..\rou\d_5_turnCount_pm_peak.rou.xml <doubleminus>write-route-ids
-->
<routes xmlns:xsi="http://www.w3.org/2001/XMLSchema-instance" xsi:noNamespaceSchemaLocation="http://sumo.dlr.de/xsd/routes_file.xsd">
<!-- begin="0.0" end="1800.0" -->
    <route id="3" edges="CR101_DU_1 CR101_DU_2 CR101_DU_3 CR101_DU_4 CR101_DU_5"/> <!-- 405 -->
    <route id="4" edges="CR101_DU_1 CR101_DU_2 CR101_DU_3 CR30_RL_16"/> <!-- 30 -->
    <route id="6" edges="CR101_DU_1 CR101_DU_2 CR101_DU_3R CR30_LR_4"/> <!-- 1 -->
    <route id="7" edges="CR101_DU_1 CR101_DU_2 CR101_DU_3R CR30_LR_4 CR30_LR_5"/> <!-- 2 -->
    <route id="8" edges="CR101_DU_1 CR101_DU_2 CR101_DU_3R CR30_LR_4 CR30_LR_5 CR30_LR_6"/> <!-- 2 -->
    <route id="9" edges="CR101_DU_1 CR101_DU_2 CR101_DU_3R CR30_LR_4 CR30_LR_5 CR30_LR_6 CR30_LR_7"/> <!-- 1 -->
    <route id="10" edges="CR101_DU_1 CR101_DU_2 CR101_DU_3R CR30_LR_4 CR30_LR_5 CR30_LR_6 CR30_LR_7 CR30_LR_8"/> <!-- 1 -->
    <route id="11" edges="CR101_DU_1 CR101_DU_2 CR101_DU_3R CR30_LR_4 CR30_LR_5 CR30_LR_6 CR30_LR_7 CR30_LR_8 CR30_LR_9"/> <!-- 2 -->
    <route id="12" edges="CR101_DU_1 CR101_DU_2 CR101_DU_3R CR30_LR_4 CR30_LR_5 CR30_LR_6 CR30_LR_7 CR30_LR_8 CR30_LR_9 CR30_LR_10from9"/> <!-- 3 -->
    <route id="13" edges="CR101_DU_1 CR101_DU_2 CR101_DU_3R CR30_LR_4 CR30_LR_5 CR30_LR_6 CR30_LR_7 CR30_LR_8 CR30_LR_9 CR30_LR_10from9 CR30_LR_10"/> <!-- 4 -->
    <route id="14" edges="CR101_DU_1 CR101_DU_2 CR101_DU_3R CR30_LR_4 CR30_LR_5 CR30_LR_6 CR30_LR_7 CR30_LR_8 CR30_LR_9 CR30_LR_10from9 CR30_LR_10 CR30_LR_11"/> <!-- 1 -->
    <route id="15" edges="CR101_DU_1 CR101_DU_2 CR101_DU_3R CR30_LR_4 CR30_LR_5 CR30_LR_6 CR30_LR_7 CR30_LR_8 CR30_LR_9 CR30_LR_10from9 CR30_LR_10 CR30_LR_11 CR30_LR_12"/> <!-- 1 -->
    <route id="16" edges="CR101_DU_1 CR101_DU_2 CR101_DU_3R CR30_LR_4 CR30_LR_5 CR30_LR_6 CR30_LR_7 CR30_LR_8 CR30_LR_9 CR30_LR_10from9 CR30_LR_10 CR30_LR_11 CR30_LR_12 CR30_LR_13"/> <!-- 3 -->
    <route id="17" edges="CR101_DU_1 CR101_DU_2 CR101_DU_3R CR30_LR_4 CR30_LR_5 CR30_LR_6 CR30_LR_7 CR30_LR_8 CR30_LR_9 CR30_LR_10from9 CR30_LR_10 CR30_LR_11 CR30_LR_12 CR30_LR_13 CR30_LR_14"/> <!-- 5 -->
    <route id="18" edges="CR101_DU_1 CR101_DU_2 CR101_DU_3R CR30_LR_4 CR30_LR_5 CR30_LR_6 CR30_LR_7 CR30_LR_8 CR30_LR_9 CR30_LR_10from9 CR30_LR_10 CR30_LR_11 CR30_LR_12 CR30_LR_13 CR30_LR_14 CR30_LR_15from14"/> <!-- 4 -->
    <route id="19" edges="CR101_DU_1 CR101_DU_2 CR101_DU_3R CR30_LR_4 CR30_LR_5 CR30_LR_6 CR30_LR_7 CR30_LR_8 CR30_LR_9 CR30_LR_10from9 CR30_LR_10 CR30_LR_11 CR30_LR_12 CR30_LR_13 CR30_LR_14 CR30_LR_15from14 CR30_LR_15"/> <!-- 1 -->
    <route id="20" edges="CR101_DU_1 CR101_DU_2 CR101_DU_3R CR30_LR_4 CR30_LR_5 CR30_LR_6 CR30_LR_7 CR30_LR_8 CR30_LR_9 CR30_LR_10from9 CR30_LR_10 CR30_LR_11 CR30_LR_12 CR30_LR_13 CR30_LR_14 CR30_LR_15from14 CR30_LR_15 CR30_LR_16"/> <!-- 2 -->
    <route id="23" edges="CR101_DU_1 CR101_DU_2 CR101_DU_3R CR30_LR_4 CR30_LR_5 CR30_LR_6 CR30_LR_7 CR30_LR_8 CR30_LR_9 CR30_LR_10from9 CR30_LR_10 CR30_LR_11 CR30_LR_12 CR30_LR_13 CR30_LR_14 CR30_LR_15from14 CR30_LR_15 GLN_UD_3"/> <!-- 3 -->
    <route id="24" edges="CR101_DU_1 CR101_DU_2 CR101_DU_3R CR30_LR_4 CR30_LR_5 CR30_LR_6 CR30_LR_7 CR30_LR_8 CR30_LR_9 CR30_LR_10from9 CR30_LR_10 CR30_LR_11 CR30_LR_12 CR30_LR_13 CR30_LR_14 CR30_LR_15from14 CR30_LR_15 GLN_UD_3 GLN_UD_4"/> <!-- 3 -->
    <route id="26" edges="CR101_DU_1 CR101_DU_2 CR101_DU_3R CR30_LR_4 CR30_LR_5 CR30_LR_6 CR30_LR_7 CR30_LR_8 CR30_LR_9 CR30_LR_10from9 CR30_LR_10 CR30_LR_11 CR30_LR_12 CR30_LR_13 LLN_UD_3"/> <!-- 1 -->
    <route id="27" edges="CR101_DU_1 CR101_DU_2 CR101_DU_3R CR30_LR_4 CR30_LR_5 CR30_LR_6 CR30_LR_7 CR30_LR_8 CR30_LR_9 CR30_LR_10from9 CR30_LR_10 CR30_LR_11 PLN_UD"/> <!-- 4 -->
    <route id="28" edges="CR101_DU_1 CR101_DU_2 CR101_DU_3R CR30_LR_4 CR30_LR_5 CR30_LR_6 CR30_LR_7 CR30_LR_8 CR30_LR_9 CR30_LR_10from9 QLN_UD"/> <!-- 3 -->
    <route id="32" edges="CR101_DU_1 CR101_DU_2 CR101_DU_3R CR30_LR_4 CR30_LR_5 CR30_LR_6 CR30_LR_7 CR30_LR_8 TLN_DU TLN_DU_2 TLN_UD_1 TLN_UD_2.1 TLN_UD_2"/> <!-- 1 -->
    <route id="44" edges="CR101_DU_1 CR101_DU_2 CR101_DU_3R CR30_LR_4 CR30_LR_5 CR30_LR_6 WCN_UD"/> <!-- 5 -->
    <route id="61" edges="CR101_DU_2 CR101_DU_3R CR30_LR_4 CR30_LR_5 CR30_LR_6 CR30_LR_7 CR30_LR_8 CR30_LR_9 CR30_LR_10from9 CR30_LR_10 CR30_LR_11 CR30_LR_12"/> <!-- 1 -->
    <route id="62" edges="CR101_DU_2 CR101_DU_3R CR30_LR_4 CR30_LR_5 CR30_LR_6 CR30_LR_7 CR30_LR_8 CR30_LR_9 CR30_LR_10from9 CR30_LR_10 CR30_LR_11 CR30_LR_12 CR30_LR_13"/> <!-- 1 -->
    <route id="63" edges="CR101_DU_2 CR101_DU_3R CR30_LR_4 CR30_LR_5 CR30_LR_6 CR30_LR_7 CR30_LR_8 CR30_LR_9 CR30_LR_10from9 CR30_LR_10 CR30_LR_11 CR30_LR_12 CR30_LR_13 CR30_LR_14"/> <!-- 1 -->
    <route id="64" edges="CR101_DU_2 CR101_DU_3R CR30_LR_4 CR30_LR_5 CR30_LR_6 CR30_LR_7 CR30_LR_8 CR30_LR_9 CR30_LR_10from9 CR30_LR_10 CR30_LR_11 CR30_LR_12 CR30_LR_13 CR30_LR_14 CR30_LR_15from14"/> <!-- 1 -->
    <route id="66" edges="CR101_DU_2 CR101_DU_3R CR30_LR_4 CR30_LR_5 CR30_LR_6 CR30_LR_7 CR30_LR_8 CR30_LR_9 CR30_LR_10from9 CR30_LR_10 CR30_LR_11 CR30_LR_12 CR30_LR_13 CR30_LR_14 CR30_LR_15from14 CR30_LR_15 CR30_LR_16"/> <!-- 3 -->
    <route id="70" edges="CR101_DU_2 CR101_DU_3R CR30_LR_4 CR30_LR_5 CR30_LR_6 CR30_LR_7 CR30_LR_8 CR30_LR_9 CR30_LR_10from9 CR30_LR_10 CR30_LR_11 CR30_LR_12 CR30_LR_13 CR30_LR_14 CR30_LR_15from14 CR30_LR_15 GLN_UD_3 GLN_UD_4"/> <!-- 3 -->
    <route id="110" edges="CR101_DU_3R CR30_LR_4 CR30_LR_5 CR30_LR_6 CR30_LR_7 CR30_LR_8 CR30_LR_9 CR30_LR_10from9 CR30_LR_10 CR30_LR_11 CR30_LR_12 CR30_LR_13 CR30_LR_14 CR30_LR_15from14 CR30_LR_15"/> <!-- 1 -->
    <route id="111" edges="CR101_DU_3R CR30_LR_4 CR30_LR_5 CR30_LR_6 CR30_LR_7 CR30_LR_8 CR30_LR_9 CR30_LR_10from9 CR30_LR_10 CR30_LR_11 CR30_LR_12 CR30_LR_13 CR30_LR_14 CR30_LR_15from14 CR30_LR_15 CR30_LR_16"/> <!-- 2 -->
    <route id="117" edges="CR101_DU_3R CR30_LR_4 CR30_LR_5 CR30_LR_6 CR30_LR_7 CR30_LR_8 CR30_LR_9 CR30_LR_10from9 CR30_LR_10 CR30_LR_11 CR30_LR_12 CR30_LR_13 LLN_UD_3"/> <!-- 1 -->
    <route id="142" edges="CR101_UD_1 CR101_UD_2 CR101_UD_3"/> <!-- 106 -->
    <route id="144" edges="CR101_UD_1 CR101_UD_2 CR30_LR_3 CR30_LR_4"/> <!-- 8 -->
    <route id="146" edges="CR101_UD_1 CR101_UD_2 CR30_LR_3 CR30_LR_4 CR30_LR_5 CR30_LR_6"/> <!-- 3 -->
    <route id="147" edges="CR101_UD_1 CR101_UD_2 CR30_LR_3 CR30_LR_4 CR30_LR_5 CR30_LR_6 CR30_LR_7"/> <!-- 4 -->
    <route id="148" edges="CR101_UD_1 CR101_UD_2 CR30_LR_3 CR30_LR_4 CR30_LR_5 CR30_LR_6 CR30_LR_7 CR30_LR_8"/> <!-- 6 -->
    <route id="149" edges="CR101_UD_1 CR101_UD_2 CR30_LR_3 CR30_LR_4 CR30_LR_5 CR30_LR_6 CR30_LR_7 CR30_LR_8 CR30_LR_9"/> <!-- 1 -->
    <route id="150" edges="CR101_UD_1 CR101_UD_2 CR30_LR_3 CR30_LR_4 CR30_LR_5 CR30_LR_6 CR30_LR_7 CR30_LR_8 CR30_LR_9 CR30_LR_10from9"/> <!-- 9 -->
    <route id="151" edges="CR101_UD_1 CR101_UD_2 CR30_LR_3 CR30_LR_4 CR30_LR_5 CR30_LR_6 CR30_LR_7 CR30_LR_8 CR30_LR_9 CR30_LR_10from9 CR30_LR_10"/> <!-- 7 -->
    <route id="152" edges="CR101_UD_1 CR101_UD_2 CR30_LR_3 CR30_LR_4 CR30_LR_5 CR30_LR_6 CR30_LR_7 CR30_LR_8 CR30_LR_9 CR30_LR_10from9 CR30_LR_10 CR30_LR_11"/> <!-- 2 -->
    <route id="153" edges="CR101_UD_1 CR101_UD_2 CR30_LR_3 CR30_LR_4 CR30_LR_5 CR30_LR_6 CR30_LR_7 CR30_LR_8 CR30_LR_9 CR30_LR_10from9 CR30_LR_10 CR30_LR_11 CR30_LR_12"/> <!-- 2 -->
    <route id="154" edges="CR101_UD_1 CR101_UD_2 CR30_LR_3 CR30_LR_4 CR30_LR_5 CR30_LR_6 CR30_LR_7 CR30_LR_8 CR30_LR_9 CR30_LR_10from9 CR30_LR_10 CR30_LR_11 CR30_LR_12 CR30_LR_13"/> <!-- 5 -->
    <route id="155" edges="CR101_UD_1 CR101_UD_2 CR30_LR_3 CR30_LR_4 CR30_LR_5 CR30_LR_6 CR30_LR_7 CR30_LR_8 CR30_LR_9 CR30_LR_10from9 CR30_LR_10 CR30_LR_11 CR30_LR_12 CR30_LR_13 CR30_LR_14"/> <!-- 5 -->
    <route id="156" edges="CR101_UD_1 CR101_UD_2 CR30_LR_3 CR30_LR_4 CR30_LR_5 CR30_LR_6 CR30_LR_7 CR30_LR_8 CR30_LR_9 CR30_LR_10from9 CR30_LR_10 CR30_LR_11 CR30_LR_12 CR30_LR_13 CR30_LR_14 CR30_LR_15from14"/> <!-- 4 -->
    <route id="157" edges="CR101_UD_1 CR101_UD_2 CR30_LR_3 CR30_LR_4 CR30_LR_5 CR30_LR_6 CR30_LR_7 CR30_LR_8 CR30_LR_9 CR30_LR_10from9 CR30_LR_10 CR30_LR_11 CR30_LR_12 CR30_LR_13 CR30_LR_14 CR30_LR_15from14 CR30_LR_15"/> <!-- 6 -->
    <route id="158" edges="CR101_UD_1 CR101_UD_2 CR30_LR_3 CR30_LR_4 CR30_LR_5 CR30_LR_6 CR30_LR_7 CR30_LR_8 CR30_LR_9 CR30_LR_10from9 CR30_LR_10 CR30_LR_11 CR30_LR_12 CR30_LR_13 CR30_LR_14 CR30_LR_15from14 CR30_LR_15 CR30_LR_16"/> <!-- 8 -->
    <route id="159" edges="CR101_UD_1 CR101_UD_2 CR30_LR_3 CR30_LR_4 CR30_LR_5 CR30_LR_6 CR30_LR_7 CR30_LR_8 CR30_LR_9 CR30_LR_10from9 CR30_LR_10 CR30_LR_11 CR30_LR_12 CR30_LR_13 CR30_LR_14 CR30_LR_15from14 CR30_LR_15 GLN_DU_3"/> <!-- 2 -->
    <route id="160" edges="CR101_UD_1 CR101_UD_2 CR30_LR_3 CR30_LR_4 CR30_LR_5 CR30_LR_6 CR30_LR_7 CR30_LR_8 CR30_LR_9 CR30_LR_10from9 CR30_LR_10 CR30_LR_11 CR30_LR_12 CR30_LR_13 CR30_LR_14 CR30_LR_15from14 CR30_LR_15 GLN_DU_3 GLN_DU_4"/> <!-- 2 -->
    <route id="161" edges="CR101_UD_1 CR101_UD_2 CR30_LR_3 CR30_LR_4 CR30_LR_5 CR30_LR_6 CR30_LR_7 CR30_LR_8 CR30_LR_9 CR30_LR_10from9 CR30_LR_10 CR30_LR_11 CR30_LR_12 CR30_LR_13 CR30_LR_14 CR30_LR_15from14 CR30_LR_15 GLN_UD_3"/> <!-- 1 -->
    <route id="162" edges="CR101_UD_1 CR101_UD_2 CR30_LR_3 CR30_LR_4 CR30_LR_5 CR30_LR_6 CR30_LR_7 CR30_LR_8 CR30_LR_9 CR30_LR_10from9 CR30_LR_10 CR30_LR_11 CR30_LR_12 CR30_LR_13 CR30_LR_14 CR30_LR_15from14 CR30_LR_15 GLN_UD_3 GLN_UD_4"/> <!-- 2 -->
    <route id="165" edges="CR101_UD_1 CR101_UD_2 CR30_LR_3 CR30_LR_4 CR30_LR_5 CR30_LR_6 CR30_LR_7 CR30_LR_8 CR30_LR_9 CR30_LR_10from9 CR30_LR_10 CR30_LR_11 PLN_UD"/> <!-- 3 -->
    <route id="166" edges="CR101_UD_1 CR101_UD_2 CR30_LR_3 CR30_LR_4 CR30_LR_5 CR30_LR_6 CR30_LR_7 CR30_LR_8 CR30_LR_9 CR30_LR_10from9 QLN_UD"/> <!-- 3 -->
    <route id="182" edges="CR101_UD_1 CR101_UD_2 CR30_LR_3 CR30_LR_4 CR30_LR_5 CR30_LR_6 WCN_UD"/> <!-- 2 -->
    <route id="183" edges="CR101_UD_1 CR101_UD_2 CR30_LR_3 CR30_LR_4 ZLN_UD"/> <!-- 9 -->
    <route id="184" edges="CR101_UD_1 CR101_UD_2 CR30_RL_16"/> <!-- 68 -->
    <route id="193" edges="CR101_UD_2 CR30_LR_3 CR30_LR_4 CR30_LR_5 CR30_LR_6 CR30_LR_7 CR30_LR_8 CR30_LR_9"/> <!-- 1 -->
    <route id="195" edges="CR101_UD_2 CR30_LR_3 CR30_LR_4 CR30_LR_5 CR30_LR_6 CR30_LR_7 CR30_LR_8 CR30_LR_9 CR30_LR_10from9 CR30_LR_10"/> <!-- 1 -->
    <route id="202" edges="CR101_UD_2 CR30_LR_3 CR30_LR_4 CR30_LR_5 CR30_LR_6 CR30_LR_7 CR30_LR_8 CR30_LR_9 CR30_LR_10from9 CR30_LR_10 CR30_LR_11 CR30_LR_12 CR30_LR_13 CR30_LR_14 CR30_LR_15from14 CR30_LR_15 CR30_LR_16"/> <!-- 2 -->
    <route id="206" edges="CR101_UD_2 CR30_LR_3 CR30_LR_4 CR30_LR_5 CR30_LR_6 CR30_LR_7 CR30_LR_8 CR30_LR_9 CR30_LR_10from9 CR30_LR_10 CR30_LR_11 CR30_LR_12 CR30_LR_13 CR30_LR_14 CR30_LR_15from14 CR30_LR_15 GLN_UD_3 GLN_UD_4"/> <!-- 2 -->
    <route id="208" edges="CR101_UD_2 CR30_LR_3 CR30_LR_4 CR30_LR_5 CR30_LR_6 CR30_LR_7 CR30_LR_8 CR30_LR_9 CR30_LR_10from9 CR30_LR_10 CR30_LR_11 CR30_LR_12 CR30_LR_13 LLN_UD_3"/> <!-- 1 -->
    <route id="215" edges="CR101_UD_2 CR30_LR_3 CR30_LR_4 CR30_LR_5 CR30_LR_6 CR30_LR_7 CR30_LR_8 TLN_DU TLN_DU_2 TLN_UD_1 TLN_UD_2.1 TLN_UD_2 CR30_RL_9"/> <!-- 1 -->
    <route id="231" edges="CR30_LR_1 CR30_LR_2 CR101_DU_4 CR101_DU_5"/> <!-- 49 -->
    <route id="232" edges="CR30_LR_1 CR30_LR_2 CR101_UD_3"/> <!-- 9 -->
    <route id="234" edges="CR30_LR_1 CR30_LR_2 CR30_LR_3 CR30_LR_4"/> <!-- 31 -->
    <route id="235" edges="CR30_LR_1 CR30_LR_2 CR30_LR_3 CR30_LR_4 CR30_LR_5"/> <!-- 39 -->
    <route id="236" edges="CR30_LR_1 CR30_LR_2 CR30_LR_3 CR30_LR_4 CR30_LR_5 CR30_LR_6"/> <!-- 45 -->
    <route id="237" edges="CR30_LR_1 CR30_LR_2 CR30_LR_3 CR30_LR_4 CR30_LR_5 CR30_LR_6 CR30_LR_7"/> <!-- 32 -->
    <route id="238" edges="CR30_LR_1 CR30_LR_2 CR30_LR_3 CR30_LR_4 CR30_LR_5 CR30_LR_6 CR30_LR_7 CR30_LR_8"/> <!-- 41 -->
    <route id="239" edges="CR30_LR_1 CR30_LR_2 CR30_LR_3 CR30_LR_4 CR30_LR_5 CR30_LR_6 CR30_LR_7 CR30_LR_8 CR30_LR_9"/> <!-- 4 -->
    <route id="240" edges="CR30_LR_1 CR30_LR_2 CR30_LR_3 CR30_LR_4 CR30_LR_5 CR30_LR_6 CR30_LR_7 CR30_LR_8 CR30_LR_9 CR30_LR_10from9"/> <!-- 6 -->
    <route id="241" edges="CR30_LR_1 CR30_LR_2 CR30_LR_3 CR30_LR_4 CR30_LR_5 CR30_LR_6 CR30_LR_7 CR30_LR_8 CR30_LR_9 CR30_LR_10from9 CR30_LR_10"/> <!-- 1 -->
    <route id="242" edges="CR30_LR_1 CR30_LR_2 CR30_LR_3 CR30_LR_4 CR30_LR_5 CR30_LR_6 CR30_LR_7 CR30_LR_8 CR30_LR_9 CR30_LR_10from9 CR30_LR_10 CR30_LR_11"/> <!-- 5 -->
    <route id="243" edges="CR30_LR_1 CR30_LR_2 CR30_LR_3 CR30_LR_4 CR30_LR_5 CR30_LR_6 CR30_LR_7 CR30_LR_8 CR30_LR_9 CR30_LR_10from9 CR30_LR_10 CR30_LR_11 CR30_LR_12"/> <!-- 2 -->
    <route id="244" edges="CR30_LR_1 CR30_LR_2 CR30_LR_3 CR30_LR_4 CR30_LR_5 CR30_LR_6 CR30_LR_7 CR30_LR_8 CR30_LR_9 CR30_LR_10from9 CR30_LR_10 CR30_LR_11 CR30_LR_12 CR30_LR_13"/> <!-- 5 -->
    <route id="245" edges="CR30_LR_1 CR30_LR_2 CR30_LR_3 CR30_LR_4 CR30_LR_5 CR30_LR_6 CR30_LR_7 CR30_LR_8 CR30_LR_9 CR30_LR_10from9 CR30_LR_10 CR30_LR_11 CR30_LR_12 CR30_LR_13 CR30_LR_14"/> <!-- 5 -->
    <route id="246" edges="CR30_LR_1 CR30_LR_2 CR30_LR_3 CR30_LR_4 CR30_LR_5 CR30_LR_6 CR30_LR_7 CR30_LR_8 CR30_LR_9 CR30_LR_10from9 CR30_LR_10 CR30_LR_11 CR30_LR_12 CR30_LR_13 CR30_LR_14 CR30_LR_15from14"/> <!-- 4 -->
    <route id="247" edges="CR30_LR_1 CR30_LR_2 CR30_LR_3 CR30_LR_4 CR30_LR_5 CR30_LR_6 CR30_LR_7 CR30_LR_8 CR30_LR_9 CR30_LR_10from9 CR30_LR_10 CR30_LR_11 CR30_LR_12 CR30_LR_13 CR30_LR_14 CR30_LR_15from14 CR30_LR_15"/> <!-- 5 -->
    <route id="248" edges="CR30_LR_1 CR30_LR_2 CR30_LR_3 CR30_LR_4 CR30_LR_5 CR30_LR_6 CR30_LR_7 CR30_LR_8 CR30_LR_9 CR30_LR_10from9 CR30_LR_10 CR30_LR_11 CR30_LR_12 CR30_LR_13 CR30_LR_14 CR30_LR_15from14 CR30_LR_15 CR30_LR_16"/> <!-- 4 -->
    <route id="249" edges="CR30_LR_1 CR30_LR_2 CR30_LR_3 CR30_LR_4 CR30_LR_5 CR30_LR_6 CR30_LR_7 CR30_LR_8 CR30_LR_9 CR30_LR_10from9 CR30_LR_10 CR30_LR_11 CR30_LR_12 CR30_LR_13 CR30_LR_14 CR30_LR_15from14 CR30_LR_15 GLN_DU_3"/> <!-- 1 -->
    <route id="250" edges="CR30_LR_1 CR30_LR_2 CR30_LR_3 CR30_LR_4 CR30_LR_5 CR30_LR_6 CR30_LR_7 CR30_LR_8 CR30_LR_9 CR30_LR_10from9 CR30_LR_10 CR30_LR_11 CR30_LR_12 CR30_LR_13 CR30_LR_14 CR30_LR_15from14 CR30_LR_15 GLN_DU_3 GLN_DU_4"/> <!-- 1 -->
    <route id="251" edges="CR30_LR_1 CR30_LR_2 CR30_LR_3 CR30_LR_4 CR30_LR_5 CR30_LR_6 CR30_LR_7 CR30_LR_8 CR30_LR_9 CR30_LR_10from9 CR30_LR_10 CR30_LR_11 CR30_LR_12 CR30_LR_13 CR30_LR_14 CR30_LR_15from14 CR30_LR_15 GLN_UD_3"/> <!-- 2 -->
    <route id="253" edges="CR30_LR_1 CR30_LR_2 CR30_LR_3 CR30_LR_4 CR30_LR_5 CR30_LR_6 CR30_LR_7 CR30_LR_8 CR30_LR_9 CR30_LR_10from9 CR30_LR_10 CR30_LR_11 CR30_LR_12 CR30_LR_13 LLN_DU_3"/> <!-- 1 -->
    <route id="255" edges="CR30_LR_1 CR30_LR_2 CR30_LR_3 CR30_LR_4 CR30_LR_5 CR30_LR_6 CR30_LR_7 CR30_LR_8 CR30_LR_9 CR30_LR_10from9 CR30_LR_10 CR30_LR_11 PLN_UD"/> <!-- 2 -->
    <route id="256" edges="CR30_LR_1 CR30_LR_2 CR30_LR_3 CR30_LR_4 CR30_LR_5 CR30_LR_6 CR30_LR_7 CR30_LR_8 CR30_LR_9 CR30_LR_10from9 QLN_UD"/> <!-- 2 -->
    <route id="259" edges="CR30_LR_1 CR30_LR_2 CR30_LR_3 CR30_LR_4 CR30_LR_5 CR30_LR_6 CR30_LR_7 CR30_LR_8 TLN_DU TLN_DU_2 TLN_UD_1 TLN_UD_2.1"/> <!-- 1 -->
    <route id="272" edges="CR30_LR_1 CR30_LR_2 CR30_LR_3 CR30_LR_4 CR30_LR_5 CR30_LR_6 WCN_UD"/> <!-- 35 -->
    <route id="273" edges="CR30_LR_1 CR30_LR_2 CR30_LR_3 CR30_LR_4 ZLN_UD"/> <!-- 37 -->
    <route id="278" edges="CR30_LR_10 CR30_LR_11 CR30_LR_12 CR30_LR_13 CR30_LR_14"/> <!-- 2 -->
    <route id="279" edges="CR30_LR_10 CR30_LR_11 CR30_LR_12 CR30_LR_13 CR30_LR_14 CR30_LR_15from14"/> <!-- 5 -->
    <route id="280" edges="CR30_LR_10 CR30_LR_11 CR30_LR_12 CR30_LR_13 CR30_LR_14 CR30_LR_15from14 CR30_LR_15"/> <!-- 2 -->
    <route id="281" edges="CR30_LR_10 CR30_LR_11 CR30_LR_12 CR30_LR_13 CR30_LR_14 CR30_LR_15from14 CR30_LR_15 CR30_LR_16"/> <!-- 12 -->
    <route id="282" edges="CR30_LR_10 CR30_LR_11 CR30_LR_12 CR30_LR_13 CR30_LR_14 CR30_LR_15from14 CR30_LR_15 GLN_DU_3"/> <!-- 3 -->
    <route id="283" edges="CR30_LR_10 CR30_LR_11 CR30_LR_12 CR30_LR_13 CR30_LR_14 CR30_LR_15from14 CR30_LR_15 GLN_DU_3 GLN_DU_4"/> <!-- 1 -->
    <route id="285" edges="CR30_LR_10 CR30_LR_11 CR30_LR_12 CR30_LR_13 CR30_LR_14 CR30_LR_15from14 CR30_LR_15 GLN_UD_3 GLN_UD_4"/> <!-- 1 -->
    <route id="294" edges="CR30_LR_10from9 CR30_LR_10 CR30_LR_11 CR30_LR_12 CR30_LR_13 CR30_LR_14"/> <!-- 2 -->
    <route id="295" edges="CR30_LR_10from9 CR30_LR_10 CR30_LR_11 CR30_LR_12 CR30_LR_13 CR30_LR_14 CR30_LR_15from14"/> <!-- 7 -->
    <route id="296" edges="CR30_LR_10from9 CR30_LR_10 CR30_LR_11 CR30_LR_12 CR30_LR_13 CR30_LR_14 CR30_LR_15from14 CR30_LR_15"/> <!-- 3 -->
    <route id="297" edges="CR30_LR_10from9 CR30_LR_10 CR30_LR_11 CR30_LR_12 CR30_LR_13 CR30_LR_14 CR30_LR_15from14 CR30_LR_15 CR30_LR_16"/> <!-- 13 -->
    <route id="300" edges="CR30_LR_10from9 CR30_LR_10 CR30_LR_11 CR30_LR_12 CR30_LR_13 CR30_LR_14 CR30_LR_15from14 CR30_LR_15 GLN_UD_3"/> <!-- 1 -->
    <route id="301" edges="CR30_LR_10from9 CR30_LR_10 CR30_LR_11 CR30_LR_12 CR30_LR_13 CR30_LR_14 CR30_LR_15from14 CR30_LR_15 GLN_UD_3 GLN_UD_4"/> <!-- 1 -->
    <route id="310" edges="CR30_LR_11 CR30_LR_12 CR30_LR_13 CR30_LR_14 CR30_LR_15from14"/> <!-- 4 -->
    <route id="311" edges="CR30_LR_11 CR30_LR_12 CR30_LR_13 CR30_LR_14 CR30_LR_15from14 CR30_LR_15"/> <!-- 2 -->
    <route id="312" edges="CR30_LR_11 CR30_LR_12 CR30_LR_13 CR30_LR_14 CR30_LR_15from14 CR30_LR_15 CR30_LR_16"/> <!-- 9 -->
    <route id="313" edges="CR30_LR_11 CR30_LR_12 CR30_LR_13 CR30_LR_14 CR30_LR_15from14 CR30_LR_15 GLN_DU_3"/> <!-- 1 -->
    <route id="318" edges="CR30_LR_11 CR30_LR_12 CR30_LR_13 LLN_UD_3"/> <!-- 1 -->
    <route id="322" edges="CR30_LR_12 CR30_LR_13 CR30_LR_14"/> <!-- 2 -->
    <route id="323" edges="CR30_LR_12 CR30_LR_13 CR30_LR_14 CR30_LR_15from14"/> <!-- 5 -->
    <route id="324" edges="CR30_LR_12 CR30_LR_13 CR30_LR_14 CR30_LR_15from14 CR30_LR_15"/> <!-- 3 -->
    <route id="325" edges="CR30_LR_12 CR30_LR_13 CR30_LR_14 CR30_LR_15from14 CR30_LR_15 CR30_LR_16"/> <!-- 16 -->
    <route id="328" edges="CR30_LR_12 CR30_LR_13 CR30_LR_14 CR30_LR_15from14 CR30_LR_15 GLN_UD_3"/> <!-- 1 -->
    <route id="329" edges="CR30_LR_12 CR30_LR_13 CR30_LR_14 CR30_LR_15from14 CR30_LR_15 GLN_UD_3 GLN_UD_4"/> <!-- 1 -->
    <route id="333" edges="CR30_LR_13 CR30_LR_14"/> <!-- 4 -->
    <route id="334" edges="CR30_LR_13 CR30_LR_14 CR30_LR_15from14"/> <!-- 3 -->
    <route id="335" edges="CR30_LR_13 CR30_LR_14 CR30_LR_15from14 CR30_LR_15"/> <!-- 2 -->
    <route id="336" edges="CR30_LR_13 CR30_LR_14 CR30_LR_15from14 CR30_LR_15 CR30_LR_16"/> <!-- 19 -->
    <route id="338" edges="CR30_LR_13 CR30_LR_14 CR30_LR_15from14 CR30_LR_15 GLN_DU_3 GLN_DU_4"/> <!-- 1 -->
    <route id="346" edges="CR30_LR_14 CR30_LR_15from14 CR30_LR_15 CR30_LR_16"/> <!-- 65 -->
    <route id="349" edges="CR30_LR_14 CR30_LR_15from14 CR30_LR_15 GLN_UD_3"/> <!-- 1 -->
    <route id="352" edges="CR30_LR_15 CR30_LR_16"/> <!-- 58 -->
    <route id="359" edges="CR30_LR_15from14 CR30_LR_15 CR30_LR_16"/> <!-- 55 -->
    <route id="362" edges="CR30_LR_15from14 CR30_LR_15 GLN_UD_3"/> <!-- 1 -->
    <route id="378" edges="CR30_LR_2 CR30_LR_3 CR30_LR_4 CR30_LR_5 CR30_LR_6 CR30_LR_7 CR30_LR_8 CR30_LR_9 CR30_LR_10from9 CR30_LR_10 CR30_LR_11 CR30_LR_12"/> <!-- 1 -->
    <route id="381" edges="CR30_LR_2 CR30_LR_3 CR30_LR_4 CR30_LR_5 CR30_LR_6 CR30_LR_7 CR30_LR_8 CR30_LR_9 CR30_LR_10from9 CR30_LR_10 CR30_LR_11 CR30_LR_12 CR30_LR_13 CR30_LR_14 CR30_LR_15from14"/> <!-- 1 -->
    <route id="383" edges="CR30_LR_2 CR30_LR_3 CR30_LR_4 CR30_LR_5 CR30_LR_6 CR30_LR_7 CR30_LR_8 CR30_LR_9 CR30_LR_10from9 CR30_LR_10 CR30_LR_11 CR30_LR_12 CR30_LR_13 CR30_LR_14 CR30_LR_15from14 CR30_LR_15 CR30_LR_16"/> <!-- 1 -->
    <route id="387" edges="CR30_LR_2 CR30_LR_3 CR30_LR_4 CR30_LR_5 CR30_LR_6 CR30_LR_7 CR30_LR_8 CR30_LR_9 CR30_LR_10from9 CR30_LR_10 CR30_LR_11 CR30_LR_12 CR30_LR_13 CR30_LR_14 CR30_LR_15from14 CR30_LR_15 GLN_UD_3 GLN_UD_4"/> <!-- 1 -->
    <route id="416" edges="CR30_LR_3 CR30_LR_4 CR30_LR_5 CR30_LR_6 CR30_LR_7 CR30_LR_8 CR30_LR_9 CR30_LR_10from9"/> <!-- 1 -->
    <route id="424" edges="CR30_LR_3 CR30_LR_4 CR30_LR_5 CR30_LR_6 CR30_LR_7 CR30_LR_8 CR30_LR_9 CR30_LR_10from9 CR30_LR_10 CR30_LR_11 CR30_LR_12 CR30_LR_13 CR30_LR_14 CR30_LR_15from14 CR30_LR_15 CR30_LR_16"/> <!-- 3 -->
    <route id="425" edges="CR30_LR_3 CR30_LR_4 CR30_LR_5 CR30_LR_6 CR30_LR_7 CR30_LR_8 CR30_LR_9 CR30_LR_10from9 CR30_LR_10 CR30_LR_11 CR30_LR_12 CR30_LR_13 CR30_LR_14 CR30_LR_15from14 CR30_LR_15 GLN_DU_3"/> <!-- 1 -->
    <route id="426" edges="CR30_LR_3 CR30_LR_4 CR30_LR_5 CR30_LR_6 CR30_LR_7 CR30_LR_8 CR30_LR_9 CR30_LR_10from9 CR30_LR_10 CR30_LR_11 CR30_LR_12 CR30_LR_13 CR30_LR_14 CR30_LR_15from14 CR30_LR_15 GLN_DU_3 GLN_DU_4"/> <!-- 1 -->
    <route id="428" edges="CR30_LR_3 CR30_LR_4 CR30_LR_5 CR30_LR_6 CR30_LR_7 CR30_LR_8 CR30_LR_9 CR30_LR_10from9 CR30_LR_10 CR30_LR_11 CR30_LR_12 CR30_LR_13 CR30_LR_14 CR30_LR_15from14 CR30_LR_15 GLN_UD_3 GLN_UD_4"/> <!-- 1 -->
    <route id="431" edges="CR30_LR_3 CR30_LR_4 CR30_LR_5 CR30_LR_6 CR30_LR_7 CR30_LR_8 CR30_LR_9 CR30_LR_10from9 CR30_LR_10 CR30_LR_11 PLN_UD"/> <!-- 1 -->
    <route id="457" edges="CR30_LR_4 CR30_LR_5 CR30_LR_6 CR30_LR_7 CR30_LR_8 CR30_LR_9"/> <!-- 1 -->
    <route id="461" edges="CR30_LR_4 CR30_LR_5 CR30_LR_6 CR30_LR_7 CR30_LR_8 CR30_LR_9 CR30_LR_10from9 CR30_LR_10 CR30_LR_11 CR30_LR_12"/> <!-- 1 -->
    <route id="465" edges="CR30_LR_4 CR30_LR_5 CR30_LR_6 CR30_LR_7 CR30_LR_8 CR30_LR_9 CR30_LR_10from9 CR30_LR_10 CR30_LR_11 CR30_LR_12 CR30_LR_13 CR30_LR_14 CR30_LR_15from14 CR30_LR_15"/> <!-- 1 -->
    <route id="466" edges="CR30_LR_4 CR30_LR_5 CR30_LR_6 CR30_LR_7 CR30_LR_8 CR30_LR_9 CR30_LR_10from9 CR30_LR_10 CR30_LR_11 CR30_LR_12 CR30_LR_13 CR30_LR_14 CR30_LR_15from14 CR30_LR_15 CR30_LR_16"/> <!-- 3 -->
    <route id="470" edges="CR30_LR_4 CR30_LR_5 CR30_LR_6 CR30_LR_7 CR30_LR_8 CR30_LR_9 CR30_LR_10from9 CR30_LR_10 CR30_LR_11 CR30_LR_12 CR30_LR_13 CR30_LR_14 CR30_LR_15from14 CR30_LR_15 GLN_UD_3 GLN_UD_4"/> <!-- 1 -->
    <route id="498" edges="CR30_LR_5 CR30_LR_6 CR30_LR_7 CR30_LR_8 CR30_LR_9"/> <!-- 1 -->
    <route id="502" edges="CR30_LR_5 CR30_LR_6 CR30_LR_7 CR30_LR_8 CR30_LR_9 CR30_LR_10from9 CR30_LR_10 CR30_LR_11 CR30_LR_12"/> <!-- 1 -->
    <route id="506" edges="CR30_LR_5 CR30_LR_6 CR30_LR_7 CR30_LR_8 CR30_LR_9 CR30_LR_10from9 CR30_LR_10 CR30_LR_11 CR30_LR_12 CR30_LR_13 CR30_LR_14 CR30_LR_15from14 CR30_LR_15"/> <!-- 1 -->
    <route id="507" edges="CR30_LR_5 CR30_LR_6 CR30_LR_7 CR30_LR_8 CR30_LR_9 CR30_LR_10from9 CR30_LR_10 CR30_LR_11 CR30_LR_12 CR30_LR_13 CR30_LR_14 CR30_LR_15from14 CR30_LR_15 CR30_LR_16"/> <!-- 1 -->
    <route id="510" edges="CR30_LR_5 CR30_LR_6 CR30_LR_7 CR30_LR_8 CR30_LR_9 CR30_LR_10from9 CR30_LR_10 CR30_LR_11 CR30_LR_12 CR30_LR_13 CR30_LR_14 CR30_LR_15from14 CR30_LR_15 GLN_UD_3"/> <!-- 1 -->
    <route id="520" edges="CR30_LR_5 CR30_LR_6 CR30_LR_7 CR30_LR_8 TLN_DU TLN_DU_2 TLN_UD_1 TLN_UD_2.1 TLN_UD_2 CR30_RL_9"/> <!-- 1 -->
    <route id="527" edges="CR30_LR_5 CR30_LR_6 CR30_LR_7 CR30_LR_8 TLN_DU TLN_DU_2 TLN_UD_1 TLN_UD_2.1 TLN_UD_2 CR30_RL_9 CR30_RL_10 CR30_RL_11 CR30_RL_12 CR30_RL_13 CR30_RL_14 CR30_RL_15 CR101_UD_3"/> <!-- 1 -->
    <route id="542" edges="CR30_LR_6 CR30_LR_7 CR30_LR_8 CR30_LR_9 CR30_LR_10from9 CR30_LR_10 CR30_LR_11 CR30_LR_12"/> <!-- 1 -->
    <route id="544" edges="CR30_LR_6 CR30_LR_7 CR30_LR_8 CR30_LR_9 CR30_LR_10from9 CR30_LR_10 CR30_LR_11 CR30_LR_12 CR30_LR_13 CR30_LR_14"/> <!-- 2 -->
    <route id="545" edges="CR30_LR_6 CR30_LR_7 CR30_LR_8 CR30_LR_9 CR30_LR_10from9 CR30_LR_10 CR30_LR_11 CR30_LR_12 CR30_LR_13 CR30_LR_14 CR30_LR_15from14"/> <!-- 1 -->
    <route id="547" edges="CR30_LR_6 CR30_LR_7 CR30_LR_8 CR30_LR_9 CR30_LR_10from9 CR30_LR_10 CR30_LR_11 CR30_LR_12 CR30_LR_13 CR30_LR_14 CR30_LR_15from14 CR30_LR_15 CR30_LR_16"/> <!-- 5 -->
    <route id="549" edges="CR30_LR_6 CR30_LR_7 CR30_LR_8 CR30_LR_9 CR30_LR_10from9 CR30_LR_10 CR30_LR_11 CR30_LR_12 CR30_LR_13 CR30_LR_14 CR30_LR_15from14 CR30_LR_15 GLN_DU_3 GLN_DU_4"/> <!-- 1 -->
    <route id="586" edges="CR30_LR_7 CR30_LR_8 CR30_LR_9 CR30_LR_10from9 CR30_LR_10 CR30_LR_11 CR30_LR_12 CR30_LR_13 CR30_LR_14 CR30_LR_15from14 CR30_LR_15"/> <!-- 2 -->
    <route id="587" edges="CR30_LR_7 CR30_LR_8 CR30_LR_9 CR30_LR_10from9 CR30_LR_10 CR30_LR_11 CR30_LR_12 CR30_LR_13 CR30_LR_14 CR30_LR_15from14 CR30_LR_15 CR30_LR_16"/> <!-- 2 -->
    <route id="591" edges="CR30_LR_7 CR30_LR_8 CR30_LR_9 CR30_LR_10from9 CR30_LR_10 CR30_LR_11 CR30_LR_12 CR30_LR_13 CR30_LR_14 CR30_LR_15from14 CR30_LR_15 GLN_UD_3 GLN_UD_4"/> <!-- 1 -->
    <route id="593" edges="CR30_LR_7 CR30_LR_8 CR30_LR_9 CR30_LR_10from9 CR30_LR_10 CR30_LR_11 CR30_LR_12 CR30_LR_13 LLN_UD_3"/> <!-- 1 -->
    <route id="595" edges="CR30_LR_7 CR30_LR_8 CR30_LR_9 CR30_LR_10from9 QLN_UD"/> <!-- 1 -->
    <route id="624" edges="CR30_LR_8 CR30_LR_9 CR30_LR_10from9 CR30_LR_10 CR30_LR_11 CR30_LR_12 CR30_LR_13 CR30_LR_14"/> <!-- 2 -->
    <route id="631" edges="CR30_LR_8 CR30_LR_9 CR30_LR_10from9 CR30_LR_10 CR30_LR_11 CR30_LR_12 CR30_LR_13 CR30_LR_14 CR30_LR_15from14 CR30_LR_15 GLN_UD_3 GLN_UD_4"/> <!-- 1 -->
    <route id="633" edges="CR30_LR_8 CR30_LR_9 CR30_LR_10from9 CR30_LR_10 CR30_LR_11 CR30_LR_12 CR30_LR_13 LLN_UD_3"/> <!-- 1 -->
    <route id="634" edges="CR30_LR_8 CR30_LR_9 CR30_LR_10from9 CR30_LR_10 CR30_LR_11 PLN_UD"/> <!-- 1 -->
    <route id="664" edges="CR30_LR_9 CR30_LR_10from9 CR30_LR_10 CR30_LR_11 CR30_LR_12 CR30_LR_13 CR30_LR_14"/> <!-- 2 -->
    <route id="665" edges="CR30_LR_9 CR30_LR_10from9 CR30_LR_10 CR30_LR_11 CR30_LR_12 CR30_LR_13 CR30_LR_14 CR30_LR_15from14"/> <!-- 4 -->
    <route id="666" edges="CR30_LR_9 CR30_LR_10from9 CR30_LR_10 CR30_LR_11 CR30_LR_12 CR30_LR_13 CR30_LR_14 CR30_LR_15from14 CR30_LR_15"/> <!-- 2 -->
    <route id="667" edges="CR30_LR_9 CR30_LR_10from9 CR30_LR_10 CR30_LR_11 CR30_LR_12 CR30_LR_13 CR30_LR_14 CR30_LR_15from14 CR30_LR_15 CR30_LR_16"/> <!-- 13 -->
    <route id="670" edges="CR30_LR_9 CR30_LR_10from9 CR30_LR_10 CR30_LR_11 CR30_LR_12 CR30_LR_13 CR30_LR_14 CR30_LR_15from14 CR30_LR_15 GLN_UD_3"/> <!-- 1 -->
    <route id="677" edges="CR30_RL_1 CR30_RL_2 CR30_RL_3"/> <!-- 251 -->
    <route id="678" edges="CR30_RL_1 CR30_RL_2 CR30_RL_3 CR30_RL_4from3"/> <!-- 211 -->
    <route id="679" edges="CR30_RL_1 CR30_RL_2 CR30_RL_3 CR30_RL_4from3 CR30_RL_4"/> <!-- 233 -->
    <route id="680" edges="CR30_RL_1 CR30_RL_2 CR30_RL_3 CR30_RL_4from3 CR30_RL_4 CR30_RL_5"/> <!-- 29 -->
    <route id="681" edges="CR30_RL_1 CR30_RL_2 CR30_RL_3 CR30_RL_4from3 CR30_RL_4 CR30_RL_5 CR30_RL_6from5"/> <!-- 30 -->
    <route id="682" edges="CR30_RL_1 CR30_RL_2 CR30_RL_3 CR30_RL_4from3 CR30_RL_4 CR30_RL_5 CR30_RL_6from5 CR30_RL_6"/> <!-- 32 -->
    <route id="683" edges="CR30_RL_1 CR30_RL_2 CR30_RL_3 CR30_RL_4from3 CR30_RL_4 CR30_RL_5 CR30_RL_6from5 CR30_RL_6 CR30_RL_7"/> <!-- 17 -->
    <route id="684" edges="CR30_RL_1 CR30_RL_2 CR30_RL_3 CR30_RL_4from3 CR30_RL_4 CR30_RL_5 CR30_RL_6from5 CR30_RL_6 CR30_RL_7 CR30_RL_8"/> <!-- 19 -->
    <route id="685" edges="CR30_RL_1 CR30_RL_2 CR30_RL_3 CR30_RL_4from3 CR30_RL_4 CR30_RL_5 CR30_RL_6from5 CR30_RL_6 CR30_RL_7 CR30_RL_8 CR30_RL_9"/> <!-- 11 -->
    <route id="686" edges="CR30_RL_1 CR30_RL_2 CR30_RL_3 CR30_RL_4from3 CR30_RL_4 CR30_RL_5 CR30_RL_6from5 CR30_RL_6 CR30_RL_7 CR30_RL_8 CR30_RL_9 CR30_RL_10"/> <!-- 6 -->
    <route id="687" edges="CR30_RL_1 CR30_RL_2 CR30_RL_3 CR30_RL_4from3 CR30_RL_4 CR30_RL_5 CR30_RL_6from5 CR30_RL_6 CR30_RL_7 CR30_RL_8 CR30_RL_9 CR30_RL_10 CR30_RL_11"/> <!-- 12 -->
    <route id="688" edges="CR30_RL_1 CR30_RL_2 CR30_RL_3 CR30_RL_4from3 CR30_RL_4 CR30_RL_5 CR30_RL_6from5 CR30_RL_6 CR30_RL_7 CR30_RL_8 CR30_RL_9 CR30_RL_10 CR30_RL_11 CR30_RL_12"/> <!-- 7 -->
    <route id="689" edges="CR30_RL_1 CR30_RL_2 CR30_RL_3 CR30_RL_4from3 CR30_RL_4 CR30_RL_5 CR30_RL_6from5 CR30_RL_6 CR30_RL_7 CR30_RL_8 CR30_RL_9 CR30_RL_10 CR30_RL_11 CR30_RL_12 CR30_RL_13"/> <!-- 9 -->
    <route id="690" edges="CR30_RL_1 CR30_RL_2 CR30_RL_3 CR30_RL_4from3 CR30_RL_4 CR30_RL_5 CR30_RL_6from5 CR30_RL_6 CR30_RL_7 CR30_RL_8 CR30_RL_9 CR30_RL_10 CR30_RL_11 CR30_RL_12 CR30_RL_13 CR30_RL_14"/> <!-- 9 -->
    <route id="691" edges="CR30_RL_1 CR30_RL_2 CR30_RL_3 CR30_RL_4from3 CR30_RL_4 CR30_RL_5 CR30_RL_6from5 CR30_RL_6 CR30_RL_7 CR30_RL_8 CR30_RL_9 CR30_RL_10 CR30_RL_11 CR30_RL_12 CR30_RL_13 CR30_RL_14 CR30_RL_15"/> <!-- 7 -->
    <route id="692" edges="CR30_RL_1 CR30_RL_2 CR30_RL_3 CR30_RL_4from3 CR30_RL_4 CR30_RL_5 CR30_RL_6from5 CR30_RL_6 CR30_RL_7 CR30_RL_8 CR30_RL_9 CR30_RL_10 CR30_RL_11 CR30_RL_12 CR30_RL_13 CR30_RL_14 CR30_RL_15 CR101_UD_3"/> <!-- 3 -->
    <route id="693" edges="CR30_RL_1 CR30_RL_2 CR30_RL_3 CR30_RL_4from3 CR30_RL_4 CR30_RL_5 CR30_RL_6from5 CR30_RL_6 CR30_RL_7 CR30_RL_8 CR30_RL_9 CR30_RL_10 CR30_RL_11 CR30_RL_12 CR30_RL_13 CR30_RL_14 CR30_RL_15 CR30_RL_16"/> <!-- 12 -->
    <route id="694" edges="CR30_RL_1 CR30_RL_2 CR30_RL_3 CR30_RL_4from3 CR30_RL_4 CR30_RL_5 CR30_RL_6from5 CR30_RL_6 CR30_RL_7 CR30_RL_8 CR30_RL_9 CR30_RL_10 CR30_RL_11 CR30_RL_12 CR30_RL_13 CR30_RL_15R"/> <!-- 3 -->
    <route id="695" edges="CR30_RL_1 CR30_RL_2 CR30_RL_3 CR30_RL_4from3 CR30_RL_4 CR30_RL_5 CR30_RL_6from5 CR30_RL_6 CR30_RL_7 CR30_RL_8 CR30_RL_9 CR30_RL_10 CR30_RL_11 CR30_RL_12 CR30_RL_13 CR30_RL_15R CR101_DU_5"/> <!-- 28 -->
    <route id="696" edges="CR30_RL_1 CR30_RL_2 CR30_RL_3 CR30_RL_4from3 CR30_RL_4 CR30_RL_5 CR30_RL_6from5 CR30_RL_6 CR30_RL_7 CR30_RL_8 CR30_RL_9 CR30_RL_10 CR30_RL_11 CR30_RL_12 gneE35"/> <!-- 5 -->
    <route id="697" edges="CR30_RL_1 CR30_RL_2 CR30_RL_3 CR30_RL_4from3 CR30_RL_4 CR30_RL_5 CR30_RL_6from5 CR30_RL_6 CR30_RL_7 CR30_RL_8 CR30_RL_9 CR30_RL_10 CR30_RL_11 CR30_RL_12 gneE35 CR30_LR_5"/> <!-- 9 -->
    <route id="698" edges="CR30_RL_1 CR30_RL_2 CR30_RL_3 CR30_RL_4from3 CR30_RL_4 CR30_RL_5 CR30_RL_6from5 CR30_RL_6 CR30_RL_7 CR30_RL_8 CR30_RL_9 CR30_RL_10 CR30_RL_11 CR30_RL_12 gneE35 CR30_LR_5 CR30_LR_6"/> <!-- 9 -->