<?xml version="1.0" encoding="UTF-8"?>

<!-- generated on 2023-11-08 11:48:58 by Eclipse SUMO netedit Version v1_18_0+1966-98f357ff311
-->

<routes xmlns:xsi="http://www.w3.org/2001/XMLSchema-instance" xsi:noNamespaceSchemaLocation="http://sumo.dlr.de/xsd/routes_file.xsd">
    <!-- Routes -->
    <route id="10" edges="CR101_DU_1 CR101_DU_2 CR101_DU_3R CR30_LR_4 CR30_LR_5 CR30_LR_6 CR30_LR_7 CR30_LR_8"/>
    <route id="1008" edges="CR30_RL_4 CR30_RL_5 CR30_RL_6from5 CR30_RL_6 PLN_UD"/>
    <route id="1009" edges="CR30_RL_4 LLN_DU_3"/>
    <route id="1010" edges="CR30_RL_4 LLN_UD_3"/>
    <route id="1013" edges="CR30_RL_4from3 CR30_RL_4 CR30_RL_5"/>
    <route id="1014" edges="CR30_RL_4from3 CR30_RL_4 CR30_RL_5 CR30_RL_6from5"/>
    <route id="1015" edges="CR30_RL_4from3 CR30_RL_4 CR30_RL_5 CR30_RL_6from5 CR30_RL_6"/>
    <route id="1016" edges="CR30_RL_4from3 CR30_RL_4 CR30_RL_5 CR30_RL_6from5 CR30_RL_6 CR30_RL_7"/>
    <route id="1017" edges="CR30_RL_4from3 CR30_RL_4 CR30_RL_5 CR30_RL_6from5 CR30_RL_6 CR30_RL_7 CR30_RL_8"/>
    <route id="1025" edges="CR30_RL_4from3 CR30_RL_4 CR30_RL_5 CR30_RL_6from5 CR30_RL_6 CR30_RL_7 CR30_RL_8 CR30_RL_9 CR30_RL_10 CR30_RL_11 CR30_RL_12 CR30_RL_13 CR30_RL_14 CR30_RL_15 CR101_UD_3"/>
    <route id="1026" edges="CR30_RL_4from3 CR30_RL_4 CR30_RL_5 CR30_RL_6from5 CR30_RL_6 CR30_RL_7 CR30_RL_8 CR30_RL_9 CR30_RL_10 CR30_RL_11 CR30_RL_12 CR30_RL_13 CR30_RL_14 CR30_RL_15 CR30_RL_16"/>
    <route id="1027" edges="CR30_RL_4from3 CR30_RL_4 CR30_RL_5 CR30_RL_6from5 CR30_RL_6 CR30_RL_7 CR30_RL_8 CR30_RL_9 CR30_RL_10 CR30_RL_11 CR30_RL_12 CR30_RL_13 CR30_RL_15R"/>
    <route id="1028" edges="CR30_RL_4from3 CR30_RL_4 CR30_RL_5 CR30_RL_6from5 CR30_RL_6 CR30_RL_7 CR30_RL_8 CR30_RL_9 CR30_RL_10 CR30_RL_11 CR30_RL_12 CR30_RL_13 CR30_RL_15R CR101_DU_5"/>
    <route id="1029" edges="CR30_RL_4from3 CR30_RL_4 CR30_RL_5 CR30_RL_6from5 CR30_RL_6 CR30_RL_7 CR30_RL_8 CR30_RL_9 CR30_RL_10 CR30_RL_11 CR30_RL_12 gneE35"/>
    <route id="1030" edges="CR30_RL_4from3 CR30_RL_4 CR30_RL_5 CR30_RL_6from5 CR30_RL_6 CR30_RL_7 CR30_RL_8 CR30_RL_9 CR30_RL_10 CR30_RL_11 CR30_RL_12 gneE35 CR30_LR_5"/>
    <route id="1031" edges="CR30_RL_4from3 CR30_RL_4 CR30_RL_5 CR30_RL_6from5 CR30_RL_6 CR30_RL_7 CR30_RL_8 CR30_RL_9 CR30_RL_10 CR30_RL_11 CR30_RL_12 gneE35 CR30_LR_5 CR30_LR_6"/>
    <route id="1033" edges="CR30_RL_4from3 CR30_RL_4 CR30_RL_5 CR30_RL_6from5 CR30_RL_6 CR30_RL_7 CR30_RL_8 CR30_RL_9 CR30_RL_10 gneE34"/>
    <route id="1034" edges="CR30_RL_4from3 CR30_RL_4 CR30_RL_5 CR30_RL_6from5 CR30_RL_6 CR30_RL_7 CR30_RL_8 CR30_RL_9 CR30_RL_10 gneE34 CR30_LR_7"/>
    <route id="1037" edges="CR30_RL_4from3 CR30_RL_4 CR30_RL_5 CR30_RL_6from5 CR30_RL_6 CR30_RL_7 CR30_RL_8 CR30_RL_9 CR30_RL_10 gneE34 CR30_LR_7 CR30_LR_8 CR30_LR_9 CR30_LR_10from9"/>
    <route id="1039" edges="CR30_RL_4from3 CR30_RL_4 CR30_RL_5 CR30_RL_6from5 CR30_RL_6 CR30_RL_7 CR30_RL_8 CR30_RL_9 CR30_RL_10 gneE34 CR30_LR_7 CR30_LR_8 CR30_LR_9 CR30_LR_10from9 CR30_LR_10 CR30_LR_11"/>
    <route id="104" edges="CR101_DU_3R CR30_LR_4 CR30_LR_5 CR30_LR_6 CR30_LR_7 CR30_LR_8 CR30_LR_9 CR30_LR_10from9 CR30_LR_10"/>
    <route id="1050" edges="CR30_RL_4from3 CR30_RL_4 CR30_RL_5 CR30_RL_6from5 CR30_RL_6 CR30_RL_7 CR30_RL_8 CR30_RL_9 CR30_RL_10 gneE34 CR30_LR_7 CR30_LR_8 CR30_LR_9 CR30_LR_10from9 QLN_UD"/>
    <route id="1054" edges="CR30_RL_4from3 CR30_RL_4 CR30_RL_5 CR30_RL_6from5 CR30_RL_6 CR30_RL_7 CR30_RL_8 TLN_DU TLN_DU_2 TLN_UD_1 TLN_UD_2.1"/>
    <route id="1056" edges="CR30_RL_4from3 CR30_RL_4 CR30_RL_5 CR30_RL_6from5 CR30_RL_6 PLN_UD"/>
    <route id="1057" edges="CR30_RL_4from3 CR30_RL_4 LLN_DU_3"/>
    <route id="1058" edges="CR30_RL_4from3 CR30_RL_4 LLN_UD_3"/>
    <route id="1065" edges="CR30_RL_5 CR30_RL_6from5 CR30_RL_6 CR30_RL_7 CR30_RL_8 CR30_RL_9 CR30_RL_10"/>
    <route id="1072" edges="CR30_RL_5 CR30_RL_6from5 CR30_RL_6 CR30_RL_7 CR30_RL_8 CR30_RL_9 CR30_RL_10 CR30_RL_11 CR30_RL_12 CR30_RL_13 CR30_RL_14 CR30_RL_15 CR30_RL_16"/>
    <route id="108" edges="CR101_DU_3R CR30_LR_4 CR30_LR_5 CR30_LR_6 CR30_LR_7 CR30_LR_8 CR30_LR_9 CR30_LR_10from9 CR30_LR_10 CR30_LR_11 CR30_LR_12 CR30_LR_13 CR30_LR_14"/>
    <route id="1082" edges="CR30_RL_5 CR30_RL_6from5 CR30_RL_6 CR30_RL_7 CR30_RL_8 CR30_RL_9 CR30_RL_10 gneE34 CR30_LR_7 CR30_LR_8 CR30_LR_9"/>
    <route id="1089" edges="CR30_RL_5 CR30_RL_6from5 CR30_RL_6 CR30_RL_7 CR30_RL_8 CR30_RL_9 CR30_RL_10 gneE34 CR30_LR_7 CR30_LR_8 CR30_LR_9 CR30_LR_10from9 CR30_LR_10 CR30_LR_11 CR30_LR_12 CR30_LR_13 CR30_LR_14 CR30_LR_15from14"/>
    <route id="1098" edges="CR30_RL_5 CR30_RL_6from5 CR30_RL_6 CR30_RL_7 CR30_RL_8 CR30_RL_9 CR30_RL_10 gneE34 CR30_LR_7 CR30_LR_8 CR30_LR_9 CR30_LR_10from9 QLN_UD"/>
    <route id="111" edges="CR101_DU_3R CR30_LR_4 CR30_LR_5 CR30_LR_6 CR30_LR_7 CR30_LR_8 CR30_LR_9 CR30_LR_10from9 CR30_LR_10 CR30_LR_11 CR30_LR_12 CR30_LR_13 CR30_LR_14 CR30_LR_15from14 CR30_LR_15 CR30_LR_16"/>
    <route id="1116" edges="CR30_RL_6 CR30_RL_7 CR30_RL_8 CR30_RL_9 CR30_RL_10 CR30_RL_11 CR30_RL_12 CR30_RL_13 CR30_RL_14 CR30_RL_15 CR30_RL_16"/>
    <route id="1118" edges="CR30_RL_6 CR30_RL_7 CR30_RL_8 CR30_RL_9 CR30_RL_10 CR30_RL_11 CR30_RL_12 CR30_RL_13 CR30_RL_15R CR101_DU_5"/>
    <route id="1132" edges="CR30_RL_6 CR30_RL_7 CR30_RL_8 CR30_RL_9 CR30_RL_10 gneE34 CR30_LR_7 CR30_LR_8 CR30_LR_9 CR30_LR_10from9 CR30_LR_10 CR30_LR_11 CR30_LR_12 CR30_LR_13 CR30_LR_14"/>
    <route id="1134" edges="CR30_RL_6 CR30_RL_7 CR30_RL_8 CR30_RL_9 CR30_RL_10 gneE34 CR30_LR_7 CR30_LR_8 CR30_LR_9 CR30_LR_10from9 CR30_LR_10 CR30_LR_11 CR30_LR_12 CR30_LR_13 CR30_LR_14 CR30_LR_15from14 CR30_LR_15"/>
    <route id="1135" edges="CR30_RL_6 CR30_RL_7 CR30_RL_8 CR30_RL_9 CR30_RL_10 gneE34 CR30_LR_7 CR30_LR_8 CR30_LR_9 CR30_LR_10from9 CR30_LR_10 CR30_LR_11 CR30_LR_12 CR30_LR_13 CR30_LR_14 CR30_LR_15from14 CR30_LR_15 CR30_LR_16"/>
    <route id="1146" edges="CR30_RL_6 CR30_RL_7 CR30_RL_8 TLN_DU TLN_DU_2 TLN_UD_1 TLN_UD_2.1"/>
    <route id="1153" edges="CR30_RL_6from5 CR30_RL_6 CR30_RL_7 CR30_RL_8 CR30_RL_9"/>
    <route id="1160" edges="CR30_RL_6from5 CR30_RL_6 CR30_RL_7 CR30_RL_8 CR30_RL_9 CR30_RL_10 CR30_RL_11 CR30_RL_12 CR30_RL_13 CR30_RL_14 CR30_RL_15 CR101_UD_3"/>
    <route id="1163" edges="CR30_RL_6from5 CR30_RL_6 CR30_RL_7 CR30_RL_8 CR30_RL_9 CR30_RL_10 CR30_RL_11 CR30_RL_12 CR30_RL_13 CR30_RL_15R CR101_DU_5"/>
    <route id="1165" edges="CR30_RL_6from5 CR30_RL_6 CR30_RL_7 CR30_RL_8 CR30_RL_9 CR30_RL_10 CR30_RL_11 CR30_RL_12 gneE35 CR30_LR_5"/>
    <route id="1166" edges="CR30_RL_6from5 CR30_RL_6 CR30_RL_7 CR30_RL_8 CR30_RL_9 CR30_RL_10 CR30_RL_11 CR30_RL_12 gneE35 CR30_LR_5 CR30_LR_6"/>
    <route id="1180" edges="CR30_RL_6from5 CR30_RL_6 CR30_RL_7 CR30_RL_8 CR30_RL_9 CR30_RL_10 gneE34 CR30_LR_7 CR30_LR_8 CR30_LR_9 CR30_LR_10from9 CR30_LR_10 CR30_LR_11 CR30_LR_12 CR30_LR_13 CR30_LR_14 CR30_LR_15from14 CR30_LR_15 CR30_LR_16"/>
    <route id="1188" edges="CR30_RL_6from5 CR30_RL_6 CR30_RL_7 CR30_RL_8 CR30_RL_9 CR30_RL_10 gneE34 WCN_UD"/>
    <route id="1192" edges="CR30_RL_6from5 CR30_RL_6 CR30_RL_7 CR30_RL_8 TLN_DU TLN_DU_2 TLN_UD_1 TLN_UD_2.1 TLN_UD_2"/>
    <route id="12" edges="CR101_DU_1 CR101_DU_2 CR101_DU_3R CR30_LR_4 CR30_LR_5 CR30_LR_6 CR30_LR_7 CR30_LR_8 CR30_LR_9 CR30_LR_10from9"/>
    <route id="1203" edges="CR30_RL_7 CR30_RL_8 CR30_RL_9 CR30_RL_10 CR30_RL_11 CR30_RL_12 CR30_RL_13 CR30_RL_14 CR30_RL_15 CR101_UD_3"/>
    <route id="1204" edges="CR30_RL_7 CR30_RL_8 CR30_RL_9 CR30_RL_10 CR30_RL_11 CR30_RL_12 CR30_RL_13 CR30_RL_14 CR30_RL_15 CR30_RL_16"/>
    <route id="1206" edges="CR30_RL_7 CR30_RL_8 CR30_RL_9 CR30_RL_10 CR30_RL_11 CR30_RL_12 CR30_RL_13 CR30_RL_15R CR101_DU_5"/>
    <route id="1209" edges="CR30_RL_7 CR30_RL_8 CR30_RL_9 CR30_RL_10 CR30_RL_11 CR30_RL_12 gneE35 CR30_LR_5 CR30_LR_6"/>
    <route id="1210" edges="CR30_RL_7 CR30_RL_8 CR30_RL_9 CR30_RL_10 CR30_RL_11 CR30_RL_12 gneE35 ZLN_UD"/>
    <route id="1212" edges="CR30_RL_7 CR30_RL_8 CR30_RL_9 CR30_RL_10 gneE34 CR30_LR_7"/>
    <route id="1223" edges="CR30_RL_7 CR30_RL_8 CR30_RL_9 CR30_RL_10 gneE34 CR30_LR_7 CR30_LR_8 CR30_LR_9 CR30_LR_10from9 CR30_LR_10 CR30_LR_11 CR30_LR_12 CR30_LR_13 CR30_LR_14 CR30_LR_15from14 CR30_LR_15 CR30_LR_16"/>
    <route id="1246" edges="CR30_RL_8 CR30_RL_9 CR30_RL_10 CR30_RL_11 CR30_RL_12 CR30_RL_13 CR30_RL_14 CR30_RL_15 CR30_RL_16"/>
    <route id="1248" edges="CR30_RL_8 CR30_RL_9 CR30_RL_10 CR30_RL_11 CR30_RL_12 CR30_RL_13 CR30_RL_15R CR101_DU_5"/>
    <route id="1259" edges="CR30_RL_8 CR30_RL_9 CR30_RL_10 gneE34 CR30_LR_7 CR30_LR_8 CR30_LR_9 CR30_LR_10from9 CR30_LR_10 CR30_LR_11"/>
    <route id="1269" edges="CR30_RL_8 CR30_RL_9 CR30_RL_10 gneE34 CR30_LR_7 CR30_LR_8 CR30_LR_9 CR30_LR_10from9 CR30_LR_10 CR30_LR_11 CR30_LR_12 CR30_LR_13 CR30_LR_14 CR30_LR_15from14 CR30_LR_15 GLN_UD_3 GLN_UD_4"/>
    <route id="1271" edges="CR30_RL_8 CR30_RL_9 CR30_RL_10 gneE34 CR30_LR_7 CR30_LR_8 CR30_LR_9 CR30_LR_10from9 CR30_LR_10 CR30_LR_11 CR30_LR_12 CR30_LR_13 LLN_UD_3"/>
    <route id="1274" edges="CR30_RL_8 CR30_RL_9 CR30_RL_10 gneE34 WCN_UD"/>
    <route id="1286" edges="CR30_RL_9 CR30_RL_10 CR30_RL_11 CR30_RL_12 CR30_RL_13 CR30_RL_14 CR30_RL_15 CR101_UD_3"/>
    <route id="1287" edges="CR30_RL_9 CR30_RL_10 CR30_RL_11 CR30_RL_12 CR30_RL_13 CR30_RL_14 CR30_RL_15 CR30_RL_16"/>
    <route id="1289" edges="CR30_RL_9 CR30_RL_10 CR30_RL_11 CR30_RL_12 CR30_RL_13 CR30_RL_15R CR101_DU_5"/>
    <route id="13" edges="CR101_DU_1 CR101_DU_2 CR101_DU_3R CR30_LR_4 CR30_LR_5 CR30_LR_6 CR30_LR_7 CR30_LR_8 CR30_LR_9 CR30_LR_10from9 CR30_LR_10"/>
    <route id="1302" edges="CR30_RL_9 CR30_RL_10 gneE34 CR30_LR_7 CR30_LR_8 CR30_LR_9 CR30_LR_10from9 CR30_LR_10 CR30_LR_11 CR30_LR_12 CR30_LR_13"/>
    <route id="1309" edges="CR30_RL_9 CR30_RL_10 gneE34 CR30_LR_7 CR30_LR_8 CR30_LR_9 CR30_LR_10from9 CR30_LR_10 CR30_LR_11 CR30_LR_12 CR30_LR_13 CR30_LR_14 CR30_LR_15from14 CR30_LR_15 GLN_UD_3"/>
    <route id="1310" edges="CR30_RL_9 CR30_RL_10 gneE34 CR30_LR_7 CR30_LR_8 CR30_LR_9 CR30_LR_10from9 CR30_LR_10 CR30_LR_11 CR30_LR_12 CR30_LR_13 CR30_LR_14 CR30_LR_15from14 CR30_LR_15 GLN_UD_3 GLN_UD_4"/>
    <route id="1321" edges="GLN_DU_1 GLN_DU_2 CR30_LR_16"/>
    <route id="1323" edges="GLN_DU_1 GLN_DU_2 CR30_RL_3 CR30_RL_4from3"/>
    <route id="1324" edges="GLN_DU_1 GLN_DU_2 CR30_RL_3 CR30_RL_4from3 CR30_RL_4"/>
    <route id="1325" edges="GLN_DU_1 GLN_DU_2 CR30_RL_3 CR30_RL_4from3 CR30_RL_4 CR30_RL_5"/>
    <route id="1326" edges="GLN_DU_1 GLN_DU_2 CR30_RL_3 CR30_RL_4from3 CR30_RL_4 CR30_RL_5 CR30_RL_6from5"/>
    <route id="1327" edges="GLN_DU_1 GLN_DU_2 CR30_RL_3 CR30_RL_4from3 CR30_RL_4 CR30_RL_5 CR30_RL_6from5 CR30_RL_6"/>
    <route id="1331" edges="GLN_DU_1 GLN_DU_2 CR30_RL_3 CR30_RL_4from3 CR30_RL_4 CR30_RL_5 CR30_RL_6from5 CR30_RL_6 CR30_RL_7 CR30_RL_8 CR30_RL_9 CR30_RL_10"/>
    <route id="1333" edges="GLN_DU_1 GLN_DU_2 CR30_RL_3 CR30_RL_4from3 CR30_RL_4 CR30_RL_5 CR30_RL_6from5 CR30_RL_6 CR30_RL_7 CR30_RL_8 CR30_RL_9 CR30_RL_10 CR30_RL_11 CR30_RL_12"/>
    <route id="1334" edges="GLN_DU_1 GLN_DU_2 CR30_RL_3 CR30_RL_4from3 CR30_RL_4 CR30_RL_5 CR30_RL_6from5 CR30_RL_6 CR30_RL_7 CR30_RL_8 CR30_RL_9 CR30_RL_10 CR30_RL_11 CR30_RL_12 CR30_RL_13"/>
    <route id="1336" edges="GLN_DU_1 GLN_DU_2 CR30_RL_3 CR30_RL_4from3 CR30_RL_4 CR30_RL_5 CR30_RL_6from5 CR30_RL_6 CR30_RL_7 CR30_RL_8 CR30_RL_9 CR30_RL_10 CR30_RL_11 CR30_RL_12 CR30_RL_13 CR30_RL_14 CR30_RL_15"/>
    <route id="1337" edges="GLN_DU_1 GLN_DU_2 CR30_RL_3 CR30_RL_4from3 CR30_RL_4 CR30_RL_5 CR30_RL_6from5 CR30_RL_6 CR30_RL_7 CR30_RL_8 CR30_RL_9 CR30_RL_10 CR30_RL_11 CR30_RL_12 CR30_RL_13 CR30_RL_14 CR30_RL_15 CR101_UD_3"/>
    <route id="1338" edges="GLN_DU_1 GLN_DU_2 CR30_RL_3 CR30_RL_4from3 CR30_RL_4 CR30_RL_5 CR30_RL_6from5 CR30_RL_6 CR30_RL_7 CR30_RL_8 CR30_RL_9 CR30_RL_10 CR30_RL_11 CR30_RL_12 CR30_RL_13 CR30_RL_14 CR30_RL_15 CR30_RL_16"/>
    <route id="1339" edges="GLN_DU_1 GLN_DU_2 CR30_RL_3 CR30_RL_4from3 CR30_RL_4 CR30_RL_5 CR30_RL_6from5 CR30_RL_6 CR30_RL_7 CR30_RL_8 CR30_RL_9 CR30_RL_10 CR30_RL_11 CR30_RL_12 CR30_RL_13 CR30_RL_15R"/>
    <route id="1340" edges="GLN_DU_1 GLN_DU_2 CR30_RL_3 CR30_RL_4from3 CR30_RL_4 CR30_RL_5 CR30_RL_6from5 CR30_RL_6 CR30_RL_7 CR30_RL_8 CR30_RL_9 CR30_RL_10 CR30_RL_11 CR30_RL_12 CR30_RL_13 CR30_RL_15R CR101_DU_5"/>
    <route id="1341" edges="GLN_DU_1 GLN_DU_2 CR30_RL_3 CR30_RL_4from3 CR30_RL_4 CR30_RL_5 CR30_RL_6from5 CR30_RL_6 CR30_RL_7 CR30_RL_8 CR30_RL_9 CR30_RL_10 CR30_RL_11 CR30_RL_12 gneE35"/>
    <route id="1342" edges="GLN_DU_1 GLN_DU_2 CR30_RL_3 CR30_RL_4from3 CR30_RL_4 CR30_RL_5 CR30_RL_6from5 CR30_RL_6 CR30_RL_7 CR30_RL_8 CR30_RL_9 CR30_RL_10 CR30_RL_11 CR30_RL_12 gneE35 CR30_LR_5"/>
    <route id="1343" edges="GLN_DU_1 GLN_DU_2 CR30_RL_3 CR30_RL_4from3 CR30_RL_4 CR30_RL_5 CR30_RL_6from5 CR30_RL_6 CR30_RL_7 CR30_RL_8 CR30_RL_9 CR30_RL_10 CR30_RL_11 CR30_RL_12 gneE35 CR30_LR_5 CR30_LR_6"/>
    <route id="1345" edges="GLN_DU_1 GLN_DU_2 CR30_RL_3 CR30_RL_4from3 CR30_RL_4 CR30_RL_5 CR30_RL_6from5 CR30_RL_6 CR30_RL_7 CR30_RL_8 CR30_RL_9 CR30_RL_10 gneE34"/>
    <route id="1347" edges="GLN_DU_1 GLN_DU_2 CR30_RL_3 CR30_RL_4from3 CR30_RL_4 CR30_RL_5 CR30_RL_6from5 CR30_RL_6 CR30_RL_7 CR30_RL_8 CR30_RL_9 CR30_RL_10 gneE34 CR30_LR_7 CR30_LR_8"/>
    <route id="1350" edges="GLN_DU_1 GLN_DU_2 CR30_RL_3 CR30_RL_4from3 CR30_RL_4 CR30_RL_5 CR30_RL_6from5 CR30_RL_6 CR30_RL_7 CR30_RL_8 CR30_RL_9 CR30_RL_10 gneE34 CR30_LR_7 CR30_LR_8 CR30_LR_9 CR30_LR_10from9 CR30_LR_10"/>
    <route id="1352" edges="GLN_DU_1 GLN_DU_2 CR30_RL_3 CR30_RL_4from3 CR30_RL_4 CR30_RL_5 CR30_RL_6from5 CR30_RL_6 CR30_RL_7 CR30_RL_8 CR30_RL_9 CR30_RL_10 gneE34 CR30_LR_7 CR30_LR_8 CR30_LR_9 CR30_LR_10from9 CR30_LR_10 CR30_LR_11 CR30_LR_12"/>
    <route id="1353" edges="GLN_DU_1 GLN_DU_2 CR30_RL_3 CR30_RL_4from3 CR30_RL_4 CR30_RL_5 CR30_RL_6from5 CR30_RL_6 CR30_RL_7 CR30_RL_8 CR30_RL_9 CR30_RL_10 gneE34 CR30_LR_7 CR30_LR_8 CR30_LR_9 CR30_LR_10from9 CR30_LR_10 CR30_LR_11 CR30_LR_12 CR30_LR_13"/>
    <route id="1355" edges="GLN_DU_1 GLN_DU_2 CR30_RL_3 CR30_RL_4from3 CR30_RL_4 CR30_RL_5 CR30_RL_6from5 CR30_RL_6 CR30_RL_7 CR30_RL_8 CR30_RL_9 CR30_RL_10 gneE34 CR30_LR_7 CR30_LR_8 CR30_LR_9 CR30_LR_10from9 CR30_LR_10 CR30_LR_11 CR30_LR_12 CR30_LR_13 CR30_LR_14 CR30_LR_15from14"/>
    <route id="1356" edges="GLN_DU_1 GLN_DU_2 CR30_RL_3 CR30_RL_4from3 CR30_RL_4 CR30_RL_5 CR30_RL_6from5 CR30_RL_6 CR30_RL_7 CR30_RL_8 CR30_RL_9 CR30_RL_10 gneE34 CR30_LR_7 CR30_LR_8 CR30_LR_9 CR30_LR_10from9 CR30_LR_10 CR30_LR_11 CR30_LR_12 CR30_LR_13 CR30_LR_14 CR30_LR_15from14 CR30_LR_15"/>
    <route id="1360" edges="GLN_DU_1 GLN_DU_2 CR30_RL_3 CR30_RL_4from3 CR30_RL_4 CR30_RL_5 CR30_RL_6from5 CR30_RL_6 CR30_RL_7 CR30_RL_8 CR30_RL_9 CR30_RL_10 gneE34 WCN_UD"/>
    <route id="1361" edges="GLN_DU_1 GLN_DU_2 CR30_RL_3 CR30_RL_4from3 CR30_RL_4 CR30_RL_5 CR30_RL_6from5 CR30_RL_6 CR30_RL_7 CR30_RL_8 TLN_DU"/>
    <route id="1365" edges="GLN_DU_1 GLN_DU_2 CR30_RL_3 CR30_RL_4from3 CR30_RL_4 CR30_RL_5 CR30_RL_6from5 CR30_RL_6 PLN_UD"/>
    <route id="1367" edges="GLN_DU_1 GLN_DU_2 CR30_RL_3 CR30_RL_4from3 CR30_RL_4 LLN_UD_3"/>
    <route id="1368" edges="GLN_DU_1 GLN_DU_2 GLN_DU_3"/>
    <route id="1369" edges="GLN_DU_1 GLN_DU_2 GLN_DU_3 GLN_DU_4"/>
    <route id="1375" edges="GLN_DU_2 CR30_RL_3 CR30_RL_4from3 CR30_RL_4 CR30_RL_5"/>
    <route id="1377" edges="GLN_DU_2 CR30_RL_3 CR30_RL_4from3 CR30_RL_4 CR30_RL_5 CR30_RL_6from5 CR30_RL_6"/>
    <route id="1379" edges="GLN_DU_2 CR30_RL_3 CR30_RL_4from3 CR30_RL_4 CR30_RL_5 CR30_RL_6from5 CR30_RL_6 CR30_RL_7 CR30_RL_8"/>
    <route id="1387" edges="GLN_DU_2 CR30_RL_3 CR30_RL_4from3 CR30_RL_4 CR30_RL_5 CR30_RL_6from5 CR30_RL_6 CR30_RL_7 CR30_RL_8 CR30_RL_9 CR30_RL_10 CR30_RL_11 CR30_RL_12 CR30_RL_13 CR30_RL_14 CR30_RL_15 CR101_UD_3"/>
    <route id="1388" edges="GLN_DU_2 CR30_RL_3 CR30_RL_4from3 CR30_RL_4 CR30_RL_5 CR30_RL_6from5 CR30_RL_6 CR30_RL_7 CR30_RL_8 CR30_RL_9 CR30_RL_10 CR30_RL_11 CR30_RL_12 CR30_RL_13 CR30_RL_14 CR30_RL_15 CR30_RL_16"/>
    <route id="1389" edges="GLN_DU_2 CR30_RL_3 CR30_RL_4from3 CR30_RL_4 CR30_RL_5 CR30_RL_6from5 CR30_RL_6 CR30_RL_7 CR30_RL_8 CR30_RL_9 CR30_RL_10 CR30_RL_11 CR30_RL_12 CR30_RL_13 CR30_RL_15R"/>
    <route id="1390" edges="GLN_DU_2 CR30_RL_3 CR30_RL_4from3 CR30_RL_4 CR30_RL_5 CR30_RL_6from5 CR30_RL_6 CR30_RL_7 CR30_RL_8 CR30_RL_9 CR30_RL_10 CR30_RL_11 CR30_RL_12 CR30_RL_13 CR30_RL_15R CR101_DU_5"/>
    <route id="1392" edges="GLN_DU_2 CR30_RL_3 CR30_RL_4from3 CR30_RL_4 CR30_RL_5 CR30_RL_6from5 CR30_RL_6 CR30_RL_7 CR30_RL_8 CR30_RL_9 CR30_RL_10 CR30_RL_11 CR30_RL_12 gneE35 CR30_LR_5"/>
    <route id="1395" edges="GLN_DU_2 CR30_RL_3 CR30_RL_4from3 CR30_RL_4 CR30_RL_5 CR30_RL_6from5 CR30_RL_6 CR30_RL_7 CR30_RL_8 CR30_RL_9 CR30_RL_10 gneE34"/>
    <route id="1399" edges="GLN_DU_2 CR30_RL_3 CR30_RL_4from3 CR30_RL_4 CR30_RL_5 CR30_RL_6from5 CR30_RL_6 CR30_RL_7 CR30_RL_8 CR30_RL_9 CR30_RL_10 gneE34 CR30_LR_7 CR30_LR_8 CR30_LR_9 CR30_LR_10from9"/>
    <route id="14" edges="CR101_DU_1 CR101_DU_2 CR101_DU_3R CR30_LR_4 CR30_LR_5 CR30_LR_6 CR30_LR_7 CR30_LR_8 CR30_LR_9 CR30_LR_10from9 CR30_LR_10 CR30_LR_11"/>
    <route id="1401" edges="GLN_DU_2 CR30_RL_3 CR30_RL_4from3 CR30_RL_4 CR30_RL_5 CR30_RL_6from5 CR30_RL_6 CR30_RL_7 CR30_RL_8 CR30_RL_9 CR30_RL_10 gneE34 CR30_LR_7 CR30_LR_8 CR30_LR_9 CR30_LR_10from9 CR30_LR_10 CR30_LR_11"/>
    <route id="1410" edges="GLN_DU_2 CR30_RL_3 CR30_RL_4from3 CR30_RL_4 CR30_RL_5 CR30_RL_6from5 CR30_RL_6 CR30_RL_7 CR30_RL_8 CR30_RL_9 CR30_RL_10 gneE34 WCN_UD"/>
    <route id="1417" edges="GLN_DU_2 CR30_RL_3 CR30_RL_4from3 CR30_RL_4 LLN_UD_3"/>
    <route id="142" edges="CR101_UD_1 CR101_UD_2 CR101_UD_3"/>
    <route id="1423" edges="GLN_UD_1 GLN_UD_2 CR30_LR_16"/>
    <route id="1428" edges="GLN_UD_1 GLN_UD_2 CR30_RL_3 CR30_RL_4from3 CR30_RL_4 CR30_RL_5 CR30_RL_6from5"/>
    <route id="1429" edges="GLN_UD_1 GLN_UD_2 CR30_RL_3 CR30_RL_4from3 CR30_RL_4 CR30_RL_5 CR30_RL_6from5 CR30_RL_6"/>
    <route id="1432" edges="GLN_UD_1 GLN_UD_2 CR30_RL_3 CR30_RL_4from3 CR30_RL_4 CR30_RL_5 CR30_RL_6from5 CR30_RL_6 CR30_RL_7 CR30_RL_8 CR30_RL_9"/>
    <route id="1437" edges="GLN_UD_1 GLN_UD_2 CR30_RL_3 CR30_RL_4from3 CR30_RL_4 CR30_RL_5 CR30_RL_6from5 CR30_RL_6 CR30_RL_7 CR30_RL_8 CR30_RL_9 CR30_RL_10 CR30_RL_11 CR30_RL_12 CR30_RL_13 CR30_RL_14"/>
    <route id="1439" edges="GLN_UD_1 GLN_UD_2 CR30_RL_3 CR30_RL_4from3 CR30_RL_4 CR30_RL_5 CR30_RL_6from5 CR30_RL_6 CR30_RL_7 CR30_RL_8 CR30_RL_9 CR30_RL_10 CR30_RL_11 CR30_RL_12 CR30_RL_13 CR30_RL_14 CR30_RL_15 CR101_UD_3"/>
    <route id="144" edges="CR101_UD_1 CR101_UD_2 CR30_LR_3 CR30_LR_4"/>
    <route id="1444" edges="GLN_UD_1 GLN_UD_2 CR30_RL_3 CR30_RL_4from3 CR30_RL_4 CR30_RL_5 CR30_RL_6from5 CR30_RL_6 CR30_RL_7 CR30_RL_8 CR30_RL_9 CR30_RL_10 CR30_RL_11 CR30_RL_12 gneE35 CR30_LR_5"/>
    <route id="1446" edges="GLN_UD_1 GLN_UD_2 CR30_RL_3 CR30_RL_4from3 CR30_RL_4 CR30_RL_5 CR30_RL_6from5 CR30_RL_6 CR30_RL_7 CR30_RL_8 CR30_RL_9 CR30_RL_10 CR30_RL_11 CR30_RL_12 gneE35 ZLN_UD"/>
    <route id="1447" edges="GLN_UD_1 GLN_UD_2 CR30_RL_3 CR30_RL_4from3 CR30_RL_4 CR30_RL_5 CR30_RL_6from5 CR30_RL_6 CR30_RL_7 CR30_RL_8 CR30_RL_9 CR30_RL_10 gneE34"/>
    <route id="1448" edges="GLN_UD_1 GLN_UD_2 CR30_RL_3 CR30_RL_4from3 CR30_RL_4 CR30_RL_5 CR30_RL_6from5 CR30_RL_6 CR30_RL_7 CR30_RL_8 CR30_RL_9 CR30_RL_10 gneE34 CR30_LR_7"/>
    <route id="1449" edges="GLN_UD_1 GLN_UD_2 CR30_RL_3 CR30_RL_4from3 CR30_RL_4 CR30_RL_5 CR30_RL_6from5 CR30_RL_6 CR30_RL_7 CR30_RL_8 CR30_RL_9 CR30_RL_10 gneE34 CR30_LR_7 CR30_LR_8"/>
    <route id="145" edges="CR101_UD_1 CR101_UD_2 CR30_LR_3 CR30_LR_4 CR30_LR_5"/>
    <route id="1452" edges="GLN_UD_1 GLN_UD_2 CR30_RL_3 CR30_RL_4from3 CR30_RL_4 CR30_RL_5 CR30_RL_6from5 CR30_RL_6 CR30_RL_7 CR30_RL_8 CR30_RL_9 CR30_RL_10 gneE34 CR30_LR_7 CR30_LR_8 CR30_LR_9 CR30_LR_10from9 CR30_LR_10"/>
    <route id="1453" edges="GLN_UD_1 GLN_UD_2 CR30_RL_3 CR30_RL_4from3 CR30_RL_4 CR30_RL_5 CR30_RL_6from5 CR30_RL_6 CR30_RL_7 CR30_RL_8 CR30_RL_9 CR30_RL_10 gneE34 CR30_LR_7 CR30_LR_8 CR30_LR_9 CR30_LR_10from9 CR30_LR_10 CR30_LR_11"/>
    <route id="146" edges="CR101_UD_1 CR101_UD_2 CR30_LR_3 CR30_LR_4 CR30_LR_5 CR30_LR_6"/>
    <route id="1462" edges="GLN_UD_1 GLN_UD_2 CR30_RL_3 CR30_RL_4from3 CR30_RL_4 CR30_RL_5 CR30_RL_6from5 CR30_RL_6 CR30_RL_7 CR30_RL_8 CR30_RL_9 CR30_RL_10 gneE34 WCN_UD"/>
    <route id="1463" edges="GLN_UD_1 GLN_UD_2 CR30_RL_3 CR30_RL_4from3 CR30_RL_4 CR30_RL_5 CR30_RL_6from5 CR30_RL_6 CR30_RL_7 CR30_RL_8 TLN_DU"/>
    <route id="1465" edges="GLN_UD_1 GLN_UD_2 CR30_RL_3 CR30_RL_4from3 CR30_RL_4 CR30_RL_5 CR30_RL_6from5 CR30_RL_6 CR30_RL_7 CR30_RL_8 TLN_DU TLN_DU_2 TLN_UD_1 TLN_UD_2.1"/>
    <route id="1468" edges="GLN_UD_1 GLN_UD_2 CR30_RL_3 CR30_RL_4from3 CR30_RL_4 LLN_DU_3"/>
    <route id="1469" edges="GLN_UD_1 GLN_UD_2 CR30_RL_3 CR30_RL_4from3 CR30_RL_4 LLN_UD_3"/>
    <route id="147" edges="CR101_UD_1 CR101_UD_2 CR30_LR_3 CR30_LR_4 CR30_LR_5 CR30_LR_6 CR30_LR_7"/>
    <route id="1471" edges="GLN_UD_1 GLN_UD_2 GLN_UD_3 GLN_UD_4"/>
    <route id="1478" edges="GLN_UD_2 CR30_RL_3 CR30_RL_4from3 CR30_RL_4 CR30_RL_5 CR30_RL_6from5"/>
    <route id="1479" edges="GLN_UD_2 CR30_RL_3 CR30_RL_4from3 CR30_RL_4 CR30_RL_5 CR30_RL_6from5 CR30_RL_6"/>
    <route id="148" edges="CR101_UD_1 CR101_UD_2 CR30_LR_3 CR30_LR_4 CR30_LR_5 CR30_LR_6 CR30_LR_7 CR30_LR_8"/>
    <route id="1482" edges="GLN_UD_2 CR30_RL_3 CR30_RL_4from3 CR30_RL_4 CR30_RL_5 CR30_RL_6from5 CR30_RL_6 CR30_RL_7 CR30_RL_8 CR30_RL_9"/>
    <route id="1483" edges="GLN_UD_2 CR30_RL_3 CR30_RL_4from3 CR30_RL_4 CR30_RL_5 CR30_RL_6from5 CR30_RL_6 CR30_RL_7 CR30_RL_8 CR30_RL_9 CR30_RL_10"/>
    <route id="1484" edges="GLN_UD_2 CR30_RL_3 CR30_RL_4from3 CR30_RL_4 CR30_RL_5 CR30_RL_6from5 CR30_RL_6 CR30_RL_7 CR30_RL_8 CR30_RL_9 CR30_RL_10 CR30_RL_11"/>
    <route id="1485" edges="GLN_UD_2 CR30_RL_3 CR30_RL_4from3 CR30_RL_4 CR30_RL_5 CR30_RL_6from5 CR30_RL_6 CR30_RL_7 CR30_RL_8 CR30_RL_9 CR30_RL_10 CR30_RL_11 CR30_RL_12"/>
    <route id="1488" edges="GLN_UD_2 CR30_RL_3 CR30_RL_4from3 CR30_RL_4 CR30_RL_5 CR30_RL_6from5 CR30_RL_6 CR30_RL_7 CR30_RL_8 CR30_RL_9 CR30_RL_10 CR30_RL_11 CR30_RL_12 CR30_RL_13 CR30_RL_14 CR30_RL_15"/>
    <route id="1489" edges="GLN_UD_2 CR30_RL_3 CR30_RL_4from3 CR30_RL_4 CR30_RL_5 CR30_RL_6from5 CR30_RL_6 CR30_RL_7 CR30_RL_8 CR30_RL_9 CR30_RL_10 CR30_RL_11 CR30_RL_12 CR30_RL_13 CR30_RL_14 CR30_RL_15 CR101_UD_3"/>
    <route id="149" edges="CR101_UD_1 CR101_UD_2 CR30_LR_3 CR30_LR_4 CR30_LR_5 CR30_LR_6 CR30_LR_7 CR30_LR_8 CR30_LR_9"/>
    <route id="1490" edges="GLN_UD_2 CR30_RL_3 CR30_RL_4from3 CR30_RL_4 CR30_RL_5 CR30_RL_6from5 CR30_RL_6 CR30_RL_7 CR30_RL_8 CR30_RL_9 CR30_RL_10 CR30_RL_11 CR30_RL_12 CR30_RL_13 CR30_RL_14 CR30_RL_15 CR30_RL_16"/>
    <route id="1491" edges="GLN_UD_2 CR30_RL_3 CR30_RL_4from3 CR30_RL_4 CR30_RL_5 CR30_RL_6from5 CR30_RL_6 CR30_RL_7 CR30_RL_8 CR30_RL_9 CR30_RL_10 CR30_RL_11 CR30_RL_12 CR30_RL_13 CR30_RL_15R"/>
    <route id="1492" edges="GLN_UD_2 CR30_RL_3 CR30_RL_4from3 CR30_RL_4 CR30_RL_5 CR30_RL_6from5 CR30_RL_6 CR30_RL_7 CR30_RL_8 CR30_RL_9 CR30_RL_10 CR30_RL_11 CR30_RL_12 CR30_RL_13 CR30_RL_15R CR101_DU_5"/>
    <route id="1493" edges="GLN_UD_2 CR30_RL_3 CR30_RL_4from3 CR30_RL_4 CR30_RL_5 CR30_RL_6from5 CR30_RL_6 CR30_RL_7 CR30_RL_8 CR30_RL_9 CR30_RL_10 CR30_RL_11 CR30_RL_12 gneE35"/>
    <route id="15" edges="CR101_DU_1 CR101_DU_2 CR101_DU_3R CR30_LR_4 CR30_LR_5 CR30_LR_6 CR30_LR_7 CR30_LR_8 CR30_LR_9 CR30_LR_10from9 CR30_LR_10 CR30_LR_11 CR30_LR_12"/>
    <route id="150" edges="CR101_UD_1 CR101_UD_2 CR30_LR_3 CR30_LR_4 CR30_LR_5 CR30_LR_6 CR30_LR_7 CR30_LR_8 CR30_LR_9 CR30_LR_10from9"/>
    <route id="1506" edges="GLN_UD_2 CR30_RL_3 CR30_RL_4from3 CR30_RL_4 CR30_RL_5 CR30_RL_6from5 CR30_RL_6 CR30_RL_7 CR30_RL_8 CR30_RL_9 CR30_RL_10 gneE34 CR30_LR_7 CR30_LR_8 CR30_LR_9 CR30_LR_10from9 CR30_LR_10 CR30_LR_11 CR30_LR_12 CR30_LR_13 CR30_LR_14"/>
    <route id="151" edges="CR101_UD_1 CR101_UD_2 CR30_LR_3 CR30_LR_4 CR30_LR_5 CR30_LR_6 CR30_LR_7 CR30_LR_8 CR30_LR_9 CR30_LR_10from9 CR30_LR_10"/>
    <route id="1519" edges="GLN_UD_2 CR30_RL_3 CR30_RL_4from3 CR30_RL_4 LLN_UD_3"/>
    <route id="1525" edges="LLN_DU_1 LLN_DU_2 CR30_LR_14"/>
    <route id="1526" edges="LLN_DU_1 LLN_DU_2 CR30_LR_14 CR30_LR_15from14"/>
    <route id="1527" edges="LLN_DU_1 LLN_DU_2 CR30_LR_14 CR30_LR_15from14 CR30_LR_15"/>
    <route id="1528" edges="LLN_DU_1 LLN_DU_2 CR30_LR_14 CR30_LR_15from14 CR30_LR_15 CR30_LR_16"/>
    <route id="1529" edges="LLN_DU_1 LLN_DU_2 CR30_LR_14 CR30_LR_15from14 CR30_LR_15 GLN_DU_3"/>
    <route id="1530" edges="LLN_DU_1 LLN_DU_2 CR30_LR_14 CR30_LR_15from14 CR30_LR_15 GLN_DU_3 GLN_DU_4"/>
    <route id="1532" edges="LLN_DU_1 LLN_DU_2 CR30_LR_14 CR30_LR_15from14 CR30_LR_15 GLN_UD_3 GLN_UD_4"/>
    <route id="1536" edges="LLN_DU_1 LLN_DU_2 CR30_RL_5 CR30_RL_6from5 CR30_RL_6 CR30_RL_7"/>
    <route id="154" edges="CR101_UD_1 CR101_UD_2 CR30_LR_3 CR30_LR_4 CR30_LR_5 CR30_LR_6 CR30_LR_7 CR30_LR_8 CR30_LR_9 CR30_LR_10from9 CR30_LR_10 CR30_LR_11 CR30_LR_12 CR30_LR_13"/>
    <route id="1541" edges="LLN_DU_1 LLN_DU_2 CR30_RL_5 CR30_RL_6from5 CR30_RL_6 CR30_RL_7 CR30_RL_8 CR30_RL_9 CR30_RL_10 CR30_RL_11 CR30_RL_12"/>
    <route id="1545" edges="LLN_DU_1 LLN_DU_2 CR30_RL_5 CR30_RL_6from5 CR30_RL_6 CR30_RL_7 CR30_RL_8 CR30_RL_9 CR30_RL_10 CR30_RL_11 CR30_RL_12 CR30_RL_13 CR30_RL_14 CR30_RL_15 CR101_UD_3"/>
    <route id="1546" edges="LLN_DU_1 LLN_DU_2 CR30_RL_5 CR30_RL_6from5 CR30_RL_6 CR30_RL_7 CR30_RL_8 CR30_RL_9 CR30_RL_10 CR30_RL_11 CR30_RL_12 CR30_RL_13 CR30_RL_14 CR30_RL_15 CR30_RL_16"/>
    <route id="155" edges="CR101_UD_1 CR101_UD_2 CR30_LR_3 CR30_LR_4 CR30_LR_5 CR30_LR_6 CR30_LR_7 CR30_LR_8 CR30_LR_9 CR30_LR_10from9 CR30_LR_10 CR30_LR_11 CR30_LR_12 CR30_LR_13 CR30_LR_14"/>
    <route id="157" edges="CR101_UD_1 CR101_UD_2 CR30_LR_3 CR30_LR_4 CR30_LR_5 CR30_LR_6 CR30_LR_7 CR30_LR_8 CR30_LR_9 CR30_LR_10from9 CR30_LR_10 CR30_LR_11 CR30_LR_12 CR30_LR_13 CR30_LR_14 CR30_LR_15from14 CR30_LR_15"/>
    <route id="1570" edges="LLN_DU_1 LLN_DU_2 LLN_DU_3"/>
    <route id="1575" edges="LLN_DU_2 CR30_LR_14 CR30_LR_15from14 CR30_LR_15 CR30_LR_16"/>
    <route id="158" edges="CR101_UD_1 CR101_UD_2 CR30_LR_3 CR30_LR_4 CR30_LR_5 CR30_LR_6 CR30_LR_7 CR30_LR_8 CR30_LR_9 CR30_LR_10from9 CR30_LR_10 CR30_LR_11 CR30_LR_12 CR30_LR_13 CR30_LR_14 CR30_LR_15from14 CR30_LR_15 CR30_LR_16"/>
    <route id="159" edges="CR101_UD_1 CR101_UD_2 CR30_LR_3 CR30_LR_4 CR30_LR_5 CR30_LR_6 CR30_LR_7 CR30_LR_8 CR30_LR_9 CR30_LR_10from9 CR30_LR_10 CR30_LR_11 CR30_LR_12 CR30_LR_13 CR30_LR_14 CR30_LR_15from14 CR30_LR_15 GLN_DU_3"/>
    <route id="1592" edges="LLN_DU_2 CR30_RL_5 CR30_RL_6from5 CR30_RL_6 CR30_RL_7 CR30_RL_8 CR30_RL_9 CR30_RL_10 CR30_RL_11 CR30_RL_12 CR30_RL_13 CR30_RL_14 CR30_RL_15 CR101_UD_3"/>
    <route id="1595" edges="LLN_DU_2 CR30_RL_5 CR30_RL_6from5 CR30_RL_6 CR30_RL_7 CR30_RL_8 CR30_RL_9 CR30_RL_10 CR30_RL_11 CR30_RL_12 CR30_RL_13 CR30_RL_15R CR101_DU_5"/>
    <route id="16" edges="CR101_DU_1 CR101_DU_2 CR101_DU_3R CR30_LR_4 CR30_LR_5 CR30_LR_6 CR30_LR_7 CR30_LR_8 CR30_LR_9 CR30_LR_10from9 CR30_LR_10 CR30_LR_11 CR30_LR_12 CR30_LR_13"/>
    <route id="1601" edges="LLN_DU_2 CR30_RL_5 CR30_RL_6from5 CR30_RL_6 CR30_RL_7 CR30_RL_8 CR30_RL_9 CR30_RL_10 gneE34 CR30_LR_7"/>
    <route id="1609" edges="LLN_DU_2 CR30_RL_5 CR30_RL_6from5 CR30_RL_6 CR30_RL_7 CR30_RL_8 CR30_RL_9 CR30_RL_10 gneE34 CR30_LR_7 CR30_LR_8 CR30_LR_9 CR30_LR_10from9 CR30_LR_10 CR30_LR_11 CR30_LR_12 CR30_LR_13 LLN_UD_3"/>
    <route id="1613" edges="LLN_DU_2 CR30_RL_5 CR30_RL_6from5 CR30_RL_6 CR30_RL_7 CR30_RL_8 TLN_DU TLN_DU_2"/>
    <route id="1619" edges="LLN_UD_1 LLN_UD_2 CR30_LR_14"/>
    <route id="1620" edges="LLN_UD_1 LLN_UD_2 CR30_LR_14 CR30_LR_15from14"/>
    <route id="1622" edges="LLN_UD_1 LLN_UD_2 CR30_LR_14 CR30_LR_15from14 CR30_LR_15 CR30_LR_16"/>
    <route id="1623" edges="LLN_UD_1 LLN_UD_2 CR30_LR_14 CR30_LR_15from14 CR30_LR_15 GLN_DU_3"/>
    <route id="1664" edges="LLN_UD_1 LLN_UD_2 LLN_UD_3"/>
    <route id="1669" edges="LLN_UD_2 CR30_LR_14 CR30_LR_15from14 CR30_LR_15 CR30_LR_16"/>
    <route id="1679" edges="LLN_UD_2 CR30_RL_5 CR30_RL_6from5 CR30_RL_6 CR30_RL_7 CR30_RL_8 CR30_RL_9"/>
    <route id="1686" edges="LLN_UD_2 CR30_RL_5 CR30_RL_6from5 CR30_RL_6 CR30_RL_7 CR30_RL_8 CR30_RL_9 CR30_RL_10 CR30_RL_11 CR30_RL_12 CR30_RL_13 CR30_RL_14 CR30_RL_15 CR101_UD_3"/>
    <route id="1687" edges="LLN_UD_2 CR30_RL_5 CR30_RL_6from5 CR30_RL_6 CR30_RL_7 CR30_RL_8 CR30_RL_9 CR30_RL_10 CR30_RL_11 CR30_RL_12 CR30_RL_13 CR30_RL_14 CR30_RL_15 CR30_RL_16"/>
    <route id="1689" edges="LLN_UD_2 CR30_RL_5 CR30_RL_6from5 CR30_RL_6 CR30_RL_7 CR30_RL_8 CR30_RL_9 CR30_RL_10 CR30_RL_11 CR30_RL_12 CR30_RL_13 CR30_RL_15R CR101_DU_5"/>
    <route id="1690" edges="LLN_UD_2 CR30_RL_5 CR30_RL_6from5 CR30_RL_6 CR30_RL_7 CR30_RL_8 CR30_RL_9 CR30_RL_10 CR30_RL_11 CR30_RL_12 gneE35"/>
    <route id="1709" edges="LLN_UD_2 CR30_RL_5 CR30_RL_6from5 CR30_RL_6 CR30_RL_7 CR30_RL_8 TLN_DU TLN_DU_2 TLN_UD_1 TLN_UD_2.1 TLN_UD_2"/>
    <route id="1714" edges="PLN_DU CR30_LR_12 CR30_LR_13 CR30_LR_14"/>
    <route id="1715" edges="PLN_DU CR30_LR_12 CR30_LR_13 CR30_LR_14 CR30_LR_15from14"/>
    <route id="1716" edges="PLN_DU CR30_LR_12 CR30_LR_13 CR30_LR_14 CR30_LR_15from14 CR30_LR_15"/>
    <route id="1717" edges="PLN_DU CR30_LR_12 CR30_LR_13 CR30_LR_14 CR30_LR_15from14 CR30_LR_15 CR30_LR_16"/>
    <route id="1730" edges="PLN_DU CR30_RL_7 CR30_RL_8 CR30_RL_9 CR30_RL_10 CR30_RL_11 CR30_RL_12 CR30_RL_13"/>
    <route id="1732" edges="PLN_DU CR30_RL_7 CR30_RL_8 CR30_RL_9 CR30_RL_10 CR30_RL_11 CR30_RL_12 CR30_RL_13 CR30_RL_14 CR30_RL_15"/>
    <route id="1733" edges="PLN_DU CR30_RL_7 CR30_RL_8 CR30_RL_9 CR30_RL_10 CR30_RL_11 CR30_RL_12 CR30_RL_13 CR30_RL_14 CR30_RL_15 CR101_UD_3"/>
    <route id="1734" edges="PLN_DU CR30_RL_7 CR30_RL_8 CR30_RL_9 CR30_RL_10 CR30_RL_11 CR30_RL_12 CR30_RL_13 CR30_RL_14 CR30_RL_15 CR30_RL_16"/>
    <route id="1736" edges="PLN_DU CR30_RL_7 CR30_RL_8 CR30_RL_9 CR30_RL_10 CR30_RL_11 CR30_RL_12 CR30_RL_13 CR30_RL_15R CR101_DU_5"/>