<additional xmlns:xsi="http://www.w3.org/2001/XMLSchema-instance" xsi:noNamespaceSchemaLocation="http://sumo.dlr.de/xsd/additional_file.xsd">
    <e1Detector file="e1output.xml" freq="10" friendlyPos="x" id="e1det_0to1_0" lane="0to1_0" pos="130.5"/>
    <e1Detector file="e1output.xml" freq="10" friendlyPos="x" id="e1det_0to1_1" lane="0to1_1" pos="130.5"/>
    <e1Detector file="e1output.xml" freq="10" friendlyPos="x" id="e1det_17to1_0" lane="17to1_0" pos="138.55"/>
    <e1Detector file="e1output.xml" freq="10" friendlyPos="x" id="e1det_17to1_1" lane="17to1_1" pos="138.55"/>
    <e1Detector file="e1output.xml" freq="10" friendlyPos="x" id="e1det_0to4_0" lane="0to4_0" pos="130.5"/>
    <e1Detector file="e1output.xml" freq="10" friendlyPos="x" id="e1det_0to4_1" lane="0to4_1" pos="130.5"/>
    <e1Detector file="e1output.xml" freq="10" friendlyPos="x" id="e1det_21to4_0" lane="21to4_0" pos="131.95"/>
    <e1Detector file="e1output.xml" freq="10" friendlyPos="x" id="e1det_21to4_1" lane="21to4_1" pos="131.95"/>
    <e1Detector file="e1output.xml" freq="10" friendlyPos="x" id="e1det_10to11_0" lane="10to11_0" pos="130.5"/>
    <e1Detector file="e1output.xml" freq="10" friendlyPos="x" id="e1det_10to11_1" lane="10to11_1" pos="130.5"/>
    <e1Detector file="e1output.xml" freq="10" friendlyPos="x" id="e1det_7to11_0" lane="7to11_0" pos="130.5"/>
    <e1Detector file="e1output.xml" freq="10" friendlyPos="x" id="e1det_7to11_1" lane="7to11_1" pos="130.5"/>
    <e1Detector file="e1output.xml" freq="10" friendlyPos="x" id="e1det_10to14_0" lane="10to14_0" pos="130.5"/>
    <e1Detector file="e1output.xml" freq="10" friendlyPos="x" id="e1det_10to14_1" lane="10to14_1" pos="130.5"/>
    <e1Detector file="e1output.xml" freq="10" friendlyPos="x" id="e1det_13to14_0" lane="13to14_0" pos="130.5"/>
    <e1Detector file="e1output.xml" freq="10" friendlyPos="x" id="e1det_13to14_1" lane="13to14_1" pos="130.5"/>
    <e1Detector file="e1output.xml" freq="10" friendlyPos="x" id="e1det_11to15_0" lane="11to15_0" pos="130.5"/>
    <e1Detector file="e1output.xml" freq="10" friendlyPos="x" id="e1det_11to15_1" lane="11to15_1" pos="130.5"/>
    <e1Detector file="e1output.xml" freq="10" friendlyPos="x" id="e1det_14to15_0" lane="14to15_0" pos="130.5"/>
    <e1Detector file="e1output.xml" freq="10" friendlyPos="x" id="e1det_14to15_1" lane="14to15_1" pos="130.5"/>
    <e1Detector file="e1output.xml" freq="10" friendlyPos="x" id="e1det_12to13_0" lane="12to13_0" pos="130.5"/>
    <e1Detector file="e1output.xml" freq="10" friendlyPos="x" id="e1det_12to13_1" lane="12to13_1" pos="130.5"/>
    <e1Detector file="e1output.xml" freq="10" friendlyPos="x" id="e1det_9to13_0" lane="9to13_0" pos="130.5"/>
    <e1Detector file="e1output.xml" freq="10" friendlyPos="x" id="e1det_9to13_1" lane="9to13_1" pos="130.5"/>
    <e1Detector file="e1output.xml" freq="10" friendlyPos="x" id="e1det_16to0_0" lane="16to0_0" pos="138.55"/>
    <e1Detector file="e1output.xml" freq="10" friendlyPos="x" id="e1det_16to0_1" lane="16to0_1" pos="138.55"/>
    <e1Detector file="e1output.xml" freq="10" friendlyPos="x" id="e1det_20to0_0" lane="20to0_0" pos="131.95"/>
    <e1Detector file="e1output.xml" freq="10" friendlyPos="x" id="e1det_20to0_1" lane="20to0_1" pos="131.95"/>
    <e1Detector file="e1output.xml" freq="10" friendlyPos="x" id="e1det_18to2_0" lane="18to2_0" pos="138.55"/>
    <e1Detector file="e1output.xml" freq="10" friendlyPos="x" id="e1det_18to2_1" lane="18to2_1" pos="138.55"/>
    <e1Detector file="e1output.xml" freq="10" friendlyPos="x" id="e1det_1to2_0" lane="1to2_0" pos="130.5"/>
    <e1Detector file="e1output.xml" freq="10" friendlyPos="x" id="e1det_1to2_1" lane="1to2_1" pos="130.5"/>
    <e1Detector file="e1output.xml" freq="10" friendlyPos="x" id="e1det_19to3_0" lane="19to3_0" pos="138.55"/>
    <e1Detector file="e1output.xml" freq="10" friendlyPos="x" id="e1det_19to3_1" lane="19to3_1" pos="138.55"/>
    <e1Detector file="e1output.xml" freq="10" friendlyPos="x" id="e1det_2to3_0" lane="2to3_0" pos="130.5"/>
    <e1Detector file="e1output.xml" freq="10" friendlyPos="x" id="e1det_2to3_1" lane="2to3_1" pos="130.5"/>
    <e1Detector file="e1output.xml" freq="10" friendlyPos="x" id="e1det_1to5_0" lane="1to5_0" pos="130.5"/>
    <e1Detector file="e1output.xml" freq="10" friendlyPos="x" id="e1det_1to5_1" lane="1to5_1" pos="130.5"/>
    <e1Detector file="e1output.xml" freq="10" friendlyPos="x" id="e1det_4to5_0" lane="4to5_0" pos="130.5"/>
    <e1Detector file="e1output.xml" freq="10" friendlyPos="x" id="e1det_4to5_1" lane="4to5_1" pos="130.5"/>
    <e1Detector file="e1output.xml" freq="10" friendlyPos="x" id="e1det_22to8_0" lane="22to8_0" pos="131.95"/>
    <e1Detector file="e1output.xml" freq="10" friendlyPos="x" id="e1det_22to8_1" lane="22to8_1" pos="131.95"/>
    <e1Detector file="e1output.xml" freq="10" friendlyPos="x" id="e1det_4to8_0" lane="4to8_0" pos="130.5"/>
    <e1Detector file="e1output.xml" freq="10" friendlyPos="x" id="e1det_4to8_1" lane="4to8_1" pos="130.5"/>
    <e1Detector file="e1output.xml" freq="10" friendlyPos="x" id="e1det_23to12_0" lane="23to12_0" pos="131.95"/>
    <e1Detector file="e1output.xml" freq="10" friendlyPos="x" id="e1det_23to12_1" lane="23to12_1" pos="131.95"/>
    <e1Detector file="e1output.xml" freq="10" friendlyPos="x" id="e1det_8to12_0" lane="8to12_0" pos="130.5"/>
    <e1Detector file="e1output.xml" freq="10" friendlyPos="x" id="e1det_8to12_1" lane="8to12_1" pos="130.5"/>
    <e1Detector file="e1output.xml" freq="10" friendlyPos="x" id="e1det_2to6_0" lane="2to6_0" pos="130.5"/>
    <e1Detector file="e1output.xml" freq="10" friendlyPos="x" id="e1det_2to6_1" lane="2to6_1" pos="130.5"/>
    <e1Detector file="e1output.xml" freq="10" friendlyPos="x" id="e1det_5to6_0" lane="5to6_0" pos="130.5"/>
    <e1Detector file="e1output.xml" freq="10" friendlyPos="x" id="e1det_5to6_1" lane="5to6_1" pos="130.5"/>
    <e1Detector file="e1output.xml" freq="10" friendlyPos="x" id="e1det_3to7_0" lane="3to7_0" pos="130.5"/>
    <e1Detector file="e1output.xml" freq="10" friendlyPos="x" id="e1det_3to7_1" lane="3to7_1" pos="130.5"/>
    <e1Detector file="e1output.xml" freq="10" friendlyPos="x" id="e1det_6to7_0" lane="6to7_0" pos="130.5"/>
    <e1Detector file="e1output.xml" freq="10" friendlyPos="x" id="e1det_6to7_1" lane="6to7_1" pos="130.5"/>
    <e1Detector file="e1output.xml" freq="10" friendlyPos="x" id="e1det_5to9_0" lane="5to9_0" pos="130.5"/>
    <e1Detector file="e1output.xml" freq="10" friendlyPos="x" id="e1det_5to9_1" lane="5to9_1" pos="130.5"/>
    <e1Detector file="e1output.xml" freq="10" friendlyPos="x" id="e1det_8to9_0" lane="8to9_0" pos="130.5"/>
    <e1Detector file="e1output.xml" freq="10" friendlyPos="x" id="e1det_8to9_1" lane="8to9_1" pos="130.5"/>
    <e1Detector file="e1output.xml" freq="10" friendlyPos="x" id="e1det_6to10_0" lane="6to10_0" pos="130.5"/>
    <e1Detector file="e1output.xml" freq="10" friendlyPos="x" id="e1det_6to10_1" lane="6to10_1" pos="130.5"/>
    <e1Detector file="e1output.xml" freq="10" friendlyPos="x" id="e1det_9to10_0" lane="9to10_0" pos="130.5"/>
    <e1Detector file="e1output.xml" freq="10" friendlyPos="x" id="e1det_9to10_1" lane="9to10_1" pos="130.5"/>
</additional>
