<?xml version="1.0" encoding="UTF-8"?>

<routes xmlns:xsi="http://www.w3.org/2001/XMLSchema-instance" xsi:noNamespaceSchemaLocation="http://sumo.dlr.de/xsd/routes_file.xsd">

	<route id="10" edges="CR101_DU_1 CR101_DU_2 CR101_DU_3R CR30_LR_4 CR30_LR_5 CR30_LR_6 CR30_LR_7 CR30_LR_8" />
	<route id="1003" edges="CR30_RL_4 CR30_RL_5 CR30_RL_6from5 CR30_RL_6 CR30_RL_7 CR30_RL_8 CR30_RL_9 CR30_RL_10 gneE34 WCN_UD" />
	<route id="1009" edges="CR30_RL_4 LLN_DU_3" />
	<route id="1010" edges="CR30_RL_4 LLN_UD_3" />
	<route id="1013" edges="CR30_RL_4from3 CR30_RL_4 CR30_RL_5" />
	<route id="1014" edges="CR30_RL_4from3 CR30_RL_4 CR30_RL_5 CR30_RL_6from5" />
	<route id="1016" edges="CR30_RL_4from3 CR30_RL_4 CR30_RL_5 CR30_RL_6from5 CR30_RL_6 CR30_RL_7" />
	<route id="1017" edges="CR30_RL_4from3 CR30_RL_4 CR30_RL_5 CR30_RL_6from5 CR30_RL_6 CR30_RL_7 CR30_RL_8" />
	<route id="1019" edges="CR30_RL_4from3 CR30_RL_4 CR30_RL_5 CR30_RL_6from5 CR30_RL_6 CR30_RL_7 CR30_RL_8 CR30_RL_9 CR30_RL_10" />
	<route id="1026" edges="CR30_RL_4from3 CR30_RL_4 CR30_RL_5 CR30_RL_6from5 CR30_RL_6 CR30_RL_7 CR30_RL_8 CR30_RL_9 CR30_RL_10 CR30_RL_11 CR30_RL_12 CR30_RL_13 CR30_RL_14 CR30_RL_15 CR30_RL_16" />
	<route id="103" edges="CR101_DU_3R CR30_LR_4 CR30_LR_5 CR30_LR_6 CR30_LR_7 CR30_LR_8 CR30_LR_9 CR30_LR_10from9" />
	<route id="1036" edges="CR30_RL_4from3 CR30_RL_4 CR30_RL_5 CR30_RL_6from5 CR30_RL_6 CR30_RL_7 CR30_RL_8 CR30_RL_9 CR30_RL_10 gneE34 CR30_LR_7 CR30_LR_8 CR30_LR_9" />
	<route id="104" edges="CR101_DU_3R CR30_LR_4 CR30_LR_5 CR30_LR_6 CR30_LR_7 CR30_LR_8 CR30_LR_9 CR30_LR_10from9 CR30_LR_10" />
	<route id="1040" edges="CR30_RL_4from3 CR30_RL_4 CR30_RL_5 CR30_RL_6from5 CR30_RL_6 CR30_RL_7 CR30_RL_8 CR30_RL_9 CR30_RL_10 gneE34 CR30_LR_7 CR30_LR_8 CR30_LR_9 CR30_LR_10from9 CR30_LR_10 CR30_LR_11 CR30_LR_12" />
	<route id="1042" edges="CR30_RL_4from3 CR30_RL_4 CR30_RL_5 CR30_RL_6from5 CR30_RL_6 CR30_RL_7 CR30_RL_8 CR30_RL_9 CR30_RL_10 gneE34 CR30_LR_7 CR30_LR_8 CR30_LR_9 CR30_LR_10from9 CR30_LR_10 CR30_LR_11 CR30_LR_12 CR30_LR_13 CR30_LR_14" />
	<route id="1048" edges="CR30_RL_4from3 CR30_RL_4 CR30_RL_5 CR30_RL_6from5 CR30_RL_6 CR30_RL_7 CR30_RL_8 CR30_RL_9 CR30_RL_10 gneE34 CR30_LR_7 CR30_LR_8 CR30_LR_9 CR30_LR_10from9 CR30_LR_10 CR30_LR_11 CR30_LR_12 CR30_LR_13 CR30_LR_14 CR30_LR_15from14 CR30_LR_15 GLN_UD_3" />
	<route id="1049" edges="CR30_RL_4from3 CR30_RL_4 CR30_RL_5 CR30_RL_6from5 CR30_RL_6 CR30_RL_7 CR30_RL_8 CR30_RL_9 CR30_RL_10 gneE34 CR30_LR_7 CR30_LR_8 CR30_LR_9 CR30_LR_10from9 CR30_LR_10 CR30_LR_11 CR30_LR_12 CR30_LR_13 CR30_LR_14 CR30_LR_15from14 CR30_LR_15 GLN_UD_3 GLN_UD_4" />
	<route id="1050" edges="CR30_RL_4from3 CR30_RL_4 CR30_RL_5 CR30_RL_6from5 CR30_RL_6 CR30_RL_7 CR30_RL_8 CR30_RL_9 CR30_RL_10 gneE34 CR30_LR_7 CR30_LR_8 CR30_LR_9 CR30_LR_10from9 QLN_UD" />
	<route id="1054" edges="CR30_RL_4from3 CR30_RL_4 CR30_RL_5 CR30_RL_6from5 CR30_RL_6 CR30_RL_7 CR30_RL_8 TLN_DU TLN_DU_2 TLN_UD_1 TLN_UD_2.1" />
	<route id="1057" edges="CR30_RL_4from3 CR30_RL_4 LLN_DU_3" />
	<route id="1058" edges="CR30_RL_4from3 CR30_RL_4 LLN_UD_3" />
	<route id="106" edges="CR101_DU_3R CR30_LR_4 CR30_LR_5 CR30_LR_6 CR30_LR_7 CR30_LR_8 CR30_LR_9 CR30_LR_10from9 CR30_LR_10 CR30_LR_11 CR30_LR_12" />
	<route id="1071" edges="CR30_RL_5 CR30_RL_6from5 CR30_RL_6 CR30_RL_7 CR30_RL_8 CR30_RL_9 CR30_RL_10 CR30_RL_11 CR30_RL_12 CR30_RL_13 CR30_RL_14 CR30_RL_15 CR101_UD_3" />
	<route id="108" edges="CR101_DU_3R CR30_LR_4 CR30_LR_5 CR30_LR_6 CR30_LR_7 CR30_LR_8 CR30_LR_9 CR30_LR_10from9 CR30_LR_10 CR30_LR_11 CR30_LR_12 CR30_LR_13 CR30_LR_14" />
	<route id="109" edges="CR101_DU_3R CR30_LR_4 CR30_LR_5 CR30_LR_6 CR30_LR_7 CR30_LR_8 CR30_LR_9 CR30_LR_10from9 CR30_LR_10 CR30_LR_11 CR30_LR_12 CR30_LR_13 CR30_LR_14 CR30_LR_15from14" />
	<route id="1092" edges="CR30_RL_5 CR30_RL_6from5 CR30_RL_6 CR30_RL_7 CR30_RL_8 CR30_RL_9 CR30_RL_10 gneE34 CR30_LR_7 CR30_LR_8 CR30_LR_9 CR30_LR_10from9 CR30_LR_10 CR30_LR_11 CR30_LR_12 CR30_LR_13 CR30_LR_14 CR30_LR_15from14 CR30_LR_15 GLN_DU_3" />
	<route id="11" edges="CR101_DU_1 CR101_DU_2 CR101_DU_3R CR30_LR_4 CR30_LR_5 CR30_LR_6 CR30_LR_7 CR30_LR_8 CR30_LR_9" />
	<route id="110" edges="CR101_DU_3R CR30_LR_4 CR30_LR_5 CR30_LR_6 CR30_LR_7 CR30_LR_8 CR30_LR_9 CR30_LR_10from9 CR30_LR_10 CR30_LR_11 CR30_LR_12 CR30_LR_13 CR30_LR_14 CR30_LR_15from14 CR30_LR_15" />
	<route id="111" edges="CR101_DU_3R CR30_LR_4 CR30_LR_5 CR30_LR_6 CR30_LR_7 CR30_LR_8 CR30_LR_9 CR30_LR_10from9 CR30_LR_10 CR30_LR_11 CR30_LR_12 CR30_LR_13 CR30_LR_14 CR30_LR_15from14 CR30_LR_15 CR30_LR_16" />
	<route id="1126" edges="CR30_RL_6 CR30_RL_7 CR30_RL_8 CR30_RL_9 CR30_RL_10 gneE34 CR30_LR_7 CR30_LR_8 CR30_LR_9" />
	<route id="1135" edges="CR30_RL_6 CR30_RL_7 CR30_RL_8 CR30_RL_9 CR30_RL_10 gneE34 CR30_LR_7 CR30_LR_8 CR30_LR_9 CR30_LR_10from9 CR30_LR_10 CR30_LR_11 CR30_LR_12 CR30_LR_13 CR30_LR_14 CR30_LR_15from14 CR30_LR_15 CR30_LR_16" />
	<route id="1173" edges="CR30_RL_6from5 CR30_RL_6 CR30_RL_7 CR30_RL_8 CR30_RL_9 CR30_RL_10 gneE34 CR30_LR_7 CR30_LR_8 CR30_LR_9 CR30_LR_10from9 CR30_LR_10" />
	<route id="1177" edges="CR30_RL_6from5 CR30_RL_6 CR30_RL_7 CR30_RL_8 CR30_RL_9 CR30_RL_10 gneE34 CR30_LR_7 CR30_LR_8 CR30_LR_9 CR30_LR_10from9 CR30_LR_10 CR30_LR_11 CR30_LR_12 CR30_LR_13 CR30_LR_14" />
	<route id="1178" edges="CR30_RL_6from5 CR30_RL_6 CR30_RL_7 CR30_RL_8 CR30_RL_9 CR30_RL_10 gneE34 CR30_LR_7 CR30_LR_8 CR30_LR_9 CR30_LR_10from9 CR30_LR_10 CR30_LR_11 CR30_LR_12 CR30_LR_13 CR30_LR_14 CR30_LR_15from14" />
	<route id="1179" edges="CR30_RL_6from5 CR30_RL_6 CR30_RL_7 CR30_RL_8 CR30_RL_9 CR30_RL_10 gneE34 CR30_LR_7 CR30_LR_8 CR30_LR_9 CR30_LR_10from9 CR30_LR_10 CR30_LR_11 CR30_LR_12 CR30_LR_13 CR30_LR_14 CR30_LR_15from14 CR30_LR_15" />
	<route id="118" edges="CR101_DU_3R CR30_LR_4 CR30_LR_5 CR30_LR_6 CR30_LR_7 CR30_LR_8 CR30_LR_9 CR30_LR_10from9 CR30_LR_10 CR30_LR_11 PLN_UD" />
	<route id="12" edges="CR101_DU_1 CR101_DU_2 CR101_DU_3R CR30_LR_4 CR30_LR_5 CR30_LR_6 CR30_LR_7 CR30_LR_8 CR30_LR_9 CR30_LR_10from9" />
	<route id="1206" edges="CR30_RL_7 CR30_RL_8 CR30_RL_9 CR30_RL_10 CR30_RL_11 CR30_RL_12 CR30_RL_13 CR30_RL_15R CR101_DU_5" />
	<route id="1223" edges="CR30_RL_7 CR30_RL_8 CR30_RL_9 CR30_RL_10 gneE34 CR30_LR_7 CR30_LR_8 CR30_LR_9 CR30_LR_10from9 CR30_LR_10 CR30_LR_11 CR30_LR_12 CR30_LR_13 CR30_LR_14 CR30_LR_15from14 CR30_LR_15 CR30_LR_16" />
	<route id="1226" edges="CR30_RL_7 CR30_RL_8 CR30_RL_9 CR30_RL_10 gneE34 CR30_LR_7 CR30_LR_8 CR30_LR_9 CR30_LR_10from9 CR30_LR_10 CR30_LR_11 CR30_LR_12 CR30_LR_13 CR30_LR_14 CR30_LR_15from14 CR30_LR_15 GLN_UD_3" />
	<route id="1229" edges="CR30_RL_7 CR30_RL_8 CR30_RL_9 CR30_RL_10 gneE34 CR30_LR_7 CR30_LR_8 CR30_LR_9 CR30_LR_10from9 CR30_LR_10 CR30_LR_11 CR30_LR_12 CR30_LR_13 LLN_UD_3" />
	<route id="1244" edges="CR30_RL_8 CR30_RL_9 CR30_RL_10 CR30_RL_11 CR30_RL_12 CR30_RL_13 CR30_RL_14 CR30_RL_15" />
	<route id="1245" edges="CR30_RL_8 CR30_RL_9 CR30_RL_10 CR30_RL_11 CR30_RL_12 CR30_RL_13 CR30_RL_14 CR30_RL_15 CR101_UD_3" />
	<route id="1246" edges="CR30_RL_8 CR30_RL_9 CR30_RL_10 CR30_RL_11 CR30_RL_12 CR30_RL_13 CR30_RL_14 CR30_RL_15 CR30_RL_16" />
	<route id="1249" edges="CR30_RL_8 CR30_RL_9 CR30_RL_10 CR30_RL_11 CR30_RL_12 gneE35" />
	<route id="1262" edges="CR30_RL_8 CR30_RL_9 CR30_RL_10 gneE34 CR30_LR_7 CR30_LR_8 CR30_LR_9 CR30_LR_10from9 CR30_LR_10 CR30_LR_11 CR30_LR_12 CR30_LR_13 CR30_LR_14" />
	<route id="1268" edges="CR30_RL_8 CR30_RL_9 CR30_RL_10 gneE34 CR30_LR_7 CR30_LR_8 CR30_LR_9 CR30_LR_10from9 CR30_LR_10 CR30_LR_11 CR30_LR_12 CR30_LR_13 CR30_LR_14 CR30_LR_15from14 CR30_LR_15 GLN_UD_3" />
	<route id="1272" edges="CR30_RL_8 CR30_RL_9 CR30_RL_10 gneE34 CR30_LR_7 CR30_LR_8 CR30_LR_9 CR30_LR_10from9 CR30_LR_10 CR30_LR_11 PLN_UD" />
	<route id="1274" edges="CR30_RL_8 CR30_RL_9 CR30_RL_10 gneE34 WCN_UD" />
	<route id="1287" edges="CR30_RL_9 CR30_RL_10 CR30_RL_11 CR30_RL_12 CR30_RL_13 CR30_RL_14 CR30_RL_15 CR30_RL_16" />
	<route id="1289" edges="CR30_RL_9 CR30_RL_10 CR30_RL_11 CR30_RL_12 CR30_RL_13 CR30_RL_15R CR101_DU_5" />
	<route id="1301" edges="CR30_RL_9 CR30_RL_10 gneE34 CR30_LR_7 CR30_LR_8 CR30_LR_9 CR30_LR_10from9 CR30_LR_10 CR30_LR_11 CR30_LR_12" />
	<route id="1302" edges="CR30_RL_9 CR30_RL_10 gneE34 CR30_LR_7 CR30_LR_8 CR30_LR_9 CR30_LR_10from9 CR30_LR_10 CR30_LR_11 CR30_LR_12 CR30_LR_13" />
	<route id="1303" edges="CR30_RL_9 CR30_RL_10 gneE34 CR30_LR_7 CR30_LR_8 CR30_LR_9 CR30_LR_10from9 CR30_LR_10 CR30_LR_11 CR30_LR_12 CR30_LR_13 CR30_LR_14" />
	<route id="1304" edges="CR30_RL_9 CR30_RL_10 gneE34 CR30_LR_7 CR30_LR_8 CR30_LR_9 CR30_LR_10from9 CR30_LR_10 CR30_LR_11 CR30_LR_12 CR30_LR_13 CR30_LR_14 CR30_LR_15from14" />
	<route id="1305" edges="CR30_RL_9 CR30_RL_10 gneE34 CR30_LR_7 CR30_LR_8 CR30_LR_9 CR30_LR_10from9 CR30_LR_10 CR30_LR_11 CR30_LR_12 CR30_LR_13 CR30_LR_14 CR30_LR_15from14 CR30_LR_15" />
	<route id="1306" edges="CR30_RL_9 CR30_RL_10 gneE34 CR30_LR_7 CR30_LR_8 CR30_LR_9 CR30_LR_10from9 CR30_LR_10 CR30_LR_11 CR30_LR_12 CR30_LR_13 CR30_LR_14 CR30_LR_15from14 CR30_LR_15 CR30_LR_16" />
	<route id="1308" edges="CR30_RL_9 CR30_RL_10 gneE34 CR30_LR_7 CR30_LR_8 CR30_LR_9 CR30_LR_10from9 CR30_LR_10 CR30_LR_11 CR30_LR_12 CR30_LR_13 CR30_LR_14 CR30_LR_15from14 CR30_LR_15 GLN_DU_3 GLN_DU_4" />
	<route id="1310" edges="CR30_RL_9 CR30_RL_10 gneE34 CR30_LR_7 CR30_LR_8 CR30_LR_9 CR30_LR_10from9 CR30_LR_10 CR30_LR_11 CR30_LR_12 CR30_LR_13 CR30_LR_14 CR30_LR_15from14 CR30_LR_15 GLN_UD_3 GLN_UD_4" />
	<route id="1313" edges="CR30_RL_9 CR30_RL_10 gneE34 CR30_LR_7 CR30_LR_8 CR30_LR_9 CR30_LR_10from9 CR30_LR_10 CR30_LR_11 PLN_UD" />
	<route id="1321" edges="GLN_DU_1 GLN_DU_2 CR30_LR_16" />
	<route id="1325" edges="GLN_DU_1 GLN_DU_2 CR30_RL_3 CR30_RL_4from3 CR30_RL_4 CR30_RL_5" />
	<route id="1326" edges="GLN_DU_1 GLN_DU_2 CR30_RL_3 CR30_RL_4from3 CR30_RL_4 CR30_RL_5 CR30_RL_6from5" />
	<route id="1329" edges="GLN_DU_1 GLN_DU_2 CR30_RL_3 CR30_RL_4from3 CR30_RL_4 CR30_RL_5 CR30_RL_6from5 CR30_RL_6 CR30_RL_7 CR30_RL_8" />
	<route id="1333" edges="GLN_DU_1 GLN_DU_2 CR30_RL_3 CR30_RL_4from3 CR30_RL_4 CR30_RL_5 CR30_RL_6from5 CR30_RL_6 CR30_RL_7 CR30_RL_8 CR30_RL_9 CR30_RL_10 CR30_RL_11 CR30_RL_12" />
	<route id="1334" edges="GLN_DU_1 GLN_DU_2 CR30_RL_3 CR30_RL_4from3 CR30_RL_4 CR30_RL_5 CR30_RL_6from5 CR30_RL_6 CR30_RL_7 CR30_RL_8 CR30_RL_9 CR30_RL_10 CR30_RL_11 CR30_RL_12 CR30_RL_13" />
	<route id="1335" edges="GLN_DU_1 GLN_DU_2 CR30_RL_3 CR30_RL_4from3 CR30_RL_4 CR30_RL_5 CR30_RL_6from5 CR30_RL_6 CR30_RL_7 CR30_RL_8 CR30_RL_9 CR30_RL_10 CR30_RL_11 CR30_RL_12 CR30_RL_13 CR30_RL_14" />
	<route id="1336" edges="GLN_DU_1 GLN_DU_2 CR30_RL_3 CR30_RL_4from3 CR30_RL_4 CR30_RL_5 CR30_RL_6from5 CR30_RL_6 CR30_RL_7 CR30_RL_8 CR30_RL_9 CR30_RL_10 CR30_RL_11 CR30_RL_12 CR30_RL_13 CR30_RL_14 CR30_RL_15" />
	<route id="1337" edges="GLN_DU_1 GLN_DU_2 CR30_RL_3 CR30_RL_4from3 CR30_RL_4 CR30_RL_5 CR30_RL_6from5 CR30_RL_6 CR30_RL_7 CR30_RL_8 CR30_RL_9 CR30_RL_10 CR30_RL_11 CR30_RL_12 CR30_RL_13 CR30_RL_14 CR30_RL_15 CR101_UD_3" />
	<route id="1343" edges="GLN_DU_1 GLN_DU_2 CR30_RL_3 CR30_RL_4from3 CR30_RL_4 CR30_RL_5 CR30_RL_6from5 CR30_RL_6 CR30_RL_7 CR30_RL_8 CR30_RL_9 CR30_RL_10 CR30_RL_11 CR30_RL_12 gneE35 CR30_LR_5 CR30_LR_6" />
	<route id="1345" edges="GLN_DU_1 GLN_DU_2 CR30_RL_3 CR30_RL_4from3 CR30_RL_4 CR30_RL_5 CR30_RL_6from5 CR30_RL_6 CR30_RL_7 CR30_RL_8 CR30_RL_9 CR30_RL_10 gneE34" />
	<route id="1349" edges="GLN_DU_1 GLN_DU_2 CR30_RL_3 CR30_RL_4from3 CR30_RL_4 CR30_RL_5 CR30_RL_6from5 CR30_RL_6 CR30_RL_7 CR30_RL_8 CR30_RL_9 CR30_RL_10 gneE34 CR30_LR_7 CR30_LR_8 CR30_LR_9 CR30_LR_10from9" />
	<route id="1359" edges="GLN_DU_1 GLN_DU_2 CR30_RL_3 CR30_RL_4from3 CR30_RL_4 CR30_RL_5 CR30_RL_6from5 CR30_RL_6 CR30_RL_7 CR30_RL_8 CR30_RL_9 CR30_RL_10 gneE34 CR30_LR_7 CR30_LR_8 CR30_LR_9 CR30_LR_10from9 QLN_UD" />
	<route id="1366" edges="GLN_DU_1 GLN_DU_2 CR30_RL_3 CR30_RL_4from3 CR30_RL_4 LLN_DU_3" />
	<route id="1367" edges="GLN_DU_1 GLN_DU_2 CR30_RL_3 CR30_RL_4from3 CR30_RL_4 LLN_UD_3" />
	<route id="1368" edges="GLN_DU_1 GLN_DU_2 GLN_DU_3" />
	<route id="1369" edges="GLN_DU_1 GLN_DU_2 GLN_DU_3 GLN_DU_4" />
	<route id="1377" edges="GLN_DU_2 CR30_RL_3 CR30_RL_4from3 CR30_RL_4 CR30_RL_5 CR30_RL_6from5 CR30_RL_6" />
	<route id="1379" edges="GLN_DU_2 CR30_RL_3 CR30_RL_4from3 CR30_RL_4 CR30_RL_5 CR30_RL_6from5 CR30_RL_6 CR30_RL_7 CR30_RL_8" />
	<route id="1387" edges="GLN_DU_2 CR30_RL_3 CR30_RL_4from3 CR30_RL_4 CR30_RL_5 CR30_RL_6from5 CR30_RL_6 CR30_RL_7 CR30_RL_8 CR30_RL_9 CR30_RL_10 CR30_RL_11 CR30_RL_12 CR30_RL_13 CR30_RL_14 CR30_RL_15 CR101_UD_3" />
	<route id="1388" edges="GLN_DU_2 CR30_RL_3 CR30_RL_4from3 CR30_RL_4 CR30_RL_5 CR30_RL_6from5 CR30_RL_6 CR30_RL_7 CR30_RL_8 CR30_RL_9 CR30_RL_10 CR30_RL_11 CR30_RL_12 CR30_RL_13 CR30_RL_14 CR30_RL_15 CR30_RL_16" />
	<route id="1390" edges="GLN_DU_2 CR30_RL_3 CR30_RL_4from3 CR30_RL_4 CR30_RL_5 CR30_RL_6from5 CR30_RL_6 CR30_RL_7 CR30_RL_8 CR30_RL_9 CR30_RL_10 CR30_RL_11 CR30_RL_12 CR30_RL_13 CR30_RL_15R CR101_DU_5" />
	<route id="1397" edges="GLN_DU_2 CR30_RL_3 CR30_RL_4from3 CR30_RL_4 CR30_RL_5 CR30_RL_6from5 CR30_RL_6 CR30_RL_7 CR30_RL_8 CR30_RL_9 CR30_RL_10 gneE34 CR30_LR_7 CR30_LR_8" />
	<route id="14" edges="CR101_DU_1 CR101_DU_2 CR101_DU_3R CR30_LR_4 CR30_LR_5 CR30_LR_6 CR30_LR_7 CR30_LR_8 CR30_LR_9 CR30_LR_10from9 CR30_LR_10 CR30_LR_11" />
	<route id="1404" edges="GLN_DU_2 CR30_RL_3 CR30_RL_4from3 CR30_RL_4 CR30_RL_5 CR30_RL_6from5 CR30_RL_6 CR30_RL_7 CR30_RL_8 CR30_RL_9 CR30_RL_10 gneE34 CR30_LR_7 CR30_LR_8 CR30_LR_9 CR30_LR_10from9 CR30_LR_10 CR30_LR_11 CR30_LR_12 CR30_LR_13 CR30_LR_14" />
	<route id="1405" edges="GLN_DU_2 CR30_RL_3 CR30_RL_4from3 CR30_RL_4 CR30_RL_5 CR30_RL_6from5 CR30_RL_6 CR30_RL_7 CR30_RL_8 CR30_RL_9 CR30_RL_10 gneE34 CR30_LR_7 CR30_LR_8 CR30_LR_9 CR30_LR_10from9 CR30_LR_10 CR30_LR_11 CR30_LR_12 CR30_LR_13 CR30_LR_14 CR30_LR_15from14" />
	<route id="1415" edges="GLN_DU_2 CR30_RL_3 CR30_RL_4from3 CR30_RL_4 CR30_RL_5 CR30_RL_6from5 CR30_RL_6 PLN_UD" />
	<route id="1417" edges="GLN_DU_2 CR30_RL_3 CR30_RL_4from3 CR30_RL_4 LLN_UD_3" />
	<route id="142" edges="CR101_UD_1 CR101_UD_2 CR101_UD_3" />
	<route id="1423" edges="GLN_UD_1 GLN_UD_2 CR30_LR_16" />
	<route id="1428" edges="GLN_UD_1 GLN_UD_2 CR30_RL_3 CR30_RL_4from3 CR30_RL_4 CR30_RL_5 CR30_RL_6from5" />
	<route id="1439" edges="GLN_UD_1 GLN_UD_2 CR30_RL_3 CR30_RL_4from3 CR30_RL_4 CR30_RL_5 CR30_RL_6from5 CR30_RL_6 CR30_RL_7 CR30_RL_8 CR30_RL_9 CR30_RL_10 CR30_RL_11 CR30_RL_12 CR30_RL_13 CR30_RL_14 CR30_RL_15 CR101_UD_3" />
	<route id="144" edges="CR101_UD_1 CR101_UD_2 CR30_LR_3 CR30_LR_4" />
	<route id="1446" edges="GLN_UD_1 GLN_UD_2 CR30_RL_3 CR30_RL_4from3 CR30_RL_4 CR30_RL_5 CR30_RL_6from5 CR30_RL_6 CR30_RL_7 CR30_RL_8 CR30_RL_9 CR30_RL_10 CR30_RL_11 CR30_RL_12 gneE35 ZLN_UD" />
	<route id="145" edges="CR101_UD_1 CR101_UD_2 CR30_LR_3 CR30_LR_4 CR30_LR_5" />
	<route id="1450" edges="GLN_UD_1 GLN_UD_2 CR30_RL_3 CR30_RL_4from3 CR30_RL_4 CR30_RL_5 CR30_RL_6from5 CR30_RL_6 CR30_RL_7 CR30_RL_8 CR30_RL_9 CR30_RL_10 gneE34 CR30_LR_7 CR30_LR_8 CR30_LR_9" />
	<route id="1451" edges="GLN_UD_1 GLN_UD_2 CR30_RL_3 CR30_RL_4from3 CR30_RL_4 CR30_RL_5 CR30_RL_6from5 CR30_RL_6 CR30_RL_7 CR30_RL_8 CR30_RL_9 CR30_RL_10 gneE34 CR30_LR_7 CR30_LR_8 CR30_LR_9 CR30_LR_10from9" />
	<route id="1459" edges="GLN_UD_1 GLN_UD_2 CR30_RL_3 CR30_RL_4from3 CR30_RL_4 CR30_RL_5 CR30_RL_6from5 CR30_RL_6 CR30_RL_7 CR30_RL_8 CR30_RL_9 CR30_RL_10 gneE34 CR30_LR_7 CR30_LR_8 CR30_LR_9 CR30_LR_10from9 CR30_LR_10 CR30_LR_11 CR30_LR_12 CR30_LR_13 CR30_LR_14 CR30_LR_15from14 CR30_LR_15 GLN_DU_3" />
	<route id="146" edges="CR101_UD_1 CR101_UD_2 CR30_LR_3 CR30_LR_4 CR30_LR_5 CR30_LR_6" />
	<route id="1468" edges="GLN_UD_1 GLN_UD_2 CR30_RL_3 CR30_RL_4from3 CR30_RL_4 LLN_DU_3" />
	<route id="147" edges="CR101_UD_1 CR101_UD_2 CR30_LR_3 CR30_LR_4 CR30_LR_5 CR30_LR_6 CR30_LR_7" />
	<route id="1471" edges="GLN_UD_1 GLN_UD_2 GLN_UD_3 GLN_UD_4" />
	<route id="1477" edges="GLN_UD_2 CR30_RL_3 CR30_RL_4from3 CR30_RL_4 CR30_RL_5" />
	<route id="1479" edges="GLN_UD_2 CR30_RL_3 CR30_RL_4from3 CR30_RL_4 CR30_RL_5 CR30_RL_6from5 CR30_RL_6" />
	<route id="148" edges="CR101_UD_1 CR101_UD_2 CR30_LR_3 CR30_LR_4 CR30_LR_5 CR30_LR_6 CR30_LR_7 CR30_LR_8" />
	<route id="1480" edges="GLN_UD_2 CR30_RL_3 CR30_RL_4from3 CR30_RL_4 CR30_RL_5 CR30_RL_6from5 CR30_RL_6 CR30_RL_7" />
	<route id="1481" edges="GLN_UD_2 CR30_RL_3 CR30_RL_4from3 CR30_RL_4 CR30_RL_5 CR30_RL_6from5 CR30_RL_6 CR30_RL_7 CR30_RL_8" />
	<route id="1482" edges="GLN_UD_2 CR30_RL_3 CR30_RL_4from3 CR30_RL_4 CR30_RL_5 CR30_RL_6from5 CR30_RL_6 CR30_RL_7 CR30_RL_8 CR30_RL_9" />
	<route id="1483" edges="GLN_UD_2 CR30_RL_3 CR30_RL_4from3 CR30_RL_4 CR30_RL_5 CR30_RL_6from5 CR30_RL_6 CR30_RL_7 CR30_RL_8 CR30_RL_9 CR30_RL_10" />
	<route id="1489" edges="GLN_UD_2 CR30_RL_3 CR30_RL_4from3 CR30_RL_4 CR30_RL_5 CR30_RL_6from5 CR30_RL_6 CR30_RL_7 CR30_RL_8 CR30_RL_9 CR30_RL_10 CR30_RL_11 CR30_RL_12 CR30_RL_13 CR30_RL_14 CR30_RL_15 CR101_UD_3" />
	<route id="149" edges="CR101_UD_1 CR101_UD_2 CR30_LR_3 CR30_LR_4 CR30_LR_5 CR30_LR_6 CR30_LR_7 CR30_LR_8 CR30_LR_9" />
	<route id="1490" edges="GLN_UD_2 CR30_RL_3 CR30_RL_4from3 CR30_RL_4 CR30_RL_5 CR30_RL_6from5 CR30_RL_6 CR30_RL_7 CR30_RL_8 CR30_RL_9 CR30_RL_10 CR30_RL_11 CR30_RL_12 CR30_RL_13 CR30_RL_14 CR30_RL_15 CR30_RL_16" />
	<route id="1492" edges="GLN_UD_2 CR30_RL_3 CR30_RL_4from3 CR30_RL_4 CR30_RL_5 CR30_RL_6from5 CR30_RL_6 CR30_RL_7 CR30_RL_8 CR30_RL_9 CR30_RL_10 CR30_RL_11 CR30_RL_12 CR30_RL_13 CR30_RL_15R CR101_DU_5" />
	<route id="1493" edges="GLN_UD_2 CR30_RL_3 CR30_RL_4from3 CR30_RL_4 CR30_RL_5 CR30_RL_6from5 CR30_RL_6 CR30_RL_7 CR30_RL_8 CR30_RL_9 CR30_RL_10 CR30_RL_11 CR30_RL_12 gneE35" />
	<route id="1496" edges="GLN_UD_2 CR30_RL_3 CR30_RL_4from3 CR30_RL_4 CR30_RL_5 CR30_RL_6from5 CR30_RL_6 CR30_RL_7 CR30_RL_8 CR30_RL_9 CR30_RL_10 CR30_RL_11 CR30_RL_12 gneE35 ZLN_UD" />
	<route id="1497" edges="GLN_UD_2 CR30_RL_3 CR30_RL_4from3 CR30_RL_4 CR30_RL_5 CR30_RL_6from5 CR30_RL_6 CR30_RL_7 CR30_RL_8 CR30_RL_9 CR30_RL_10 gneE34" />
	<route id="15" edges="CR101_DU_1 CR101_DU_2 CR101_DU_3R CR30_LR_4 CR30_LR_5 CR30_LR_6 CR30_LR_7 CR30_LR_8 CR30_LR_9 CR30_LR_10from9 CR30_LR_10 CR30_LR_11 CR30_LR_12" />
	<route id="150" edges="CR101_UD_1 CR101_UD_2 CR30_LR_3 CR30_LR_4 CR30_LR_5 CR30_LR_6 CR30_LR_7 CR30_LR_8 CR30_LR_9 CR30_LR_10from9" />
	<route id="1503" edges="GLN_UD_2 CR30_RL_3 CR30_RL_4from3 CR30_RL_4 CR30_RL_5 CR30_RL_6from5 CR30_RL_6 CR30_RL_7 CR30_RL_8 CR30_RL_9 CR30_RL_10 gneE34 CR30_LR_7 CR30_LR_8 CR30_LR_9 CR30_LR_10from9 CR30_LR_10 CR30_LR_11" />
	<route id="151" edges="CR101_UD_1 CR101_UD_2 CR30_LR_3 CR30_LR_4 CR30_LR_5 CR30_LR_6 CR30_LR_7 CR30_LR_8 CR30_LR_9 CR30_LR_10from9 CR30_LR_10" />
	<route id="1519" edges="GLN_UD_2 CR30_RL_3 CR30_RL_4from3 CR30_RL_4 LLN_UD_3" />
	<route id="152" edges="CR101_UD_1 CR101_UD_2 CR30_LR_3 CR30_LR_4 CR30_LR_5 CR30_LR_6 CR30_LR_7 CR30_LR_8 CR30_LR_9 CR30_LR_10from9 CR30_LR_10 CR30_LR_11" />
	<route id="1525" edges="LLN_DU_1 LLN_DU_2 CR30_LR_14" />
	<route id="1526" edges="LLN_DU_1 LLN_DU_2 CR30_LR_14 CR30_LR_15from14" />
	<route id="1527" edges="LLN_DU_1 LLN_DU_2 CR30_LR_14 CR30_LR_15from14 CR30_LR_15" />
	<route id="1528" edges="LLN_DU_1 LLN_DU_2 CR30_LR_14 CR30_LR_15from14 CR30_LR_15 CR30_LR_16" />
	<route id="1529" edges="LLN_DU_1 LLN_DU_2 CR30_LR_14 CR30_LR_15from14 CR30_LR_15 GLN_DU_3" />
	<route id="153" edges="CR101_UD_1 CR101_UD_2 CR30_LR_3 CR30_LR_4 CR30_LR_5 CR30_LR_6 CR30_LR_7 CR30_LR_8 CR30_LR_9 CR30_LR_10from9 CR30_LR_10 CR30_LR_11 CR30_LR_12" />
	<route id="1530" edges="LLN_DU_1 LLN_DU_2 CR30_LR_14 CR30_LR_15from14 CR30_LR_15 GLN_DU_3 GLN_DU_4" />
	<route id="1531" edges="LLN_DU_1 LLN_DU_2 CR30_LR_14 CR30_LR_15from14 CR30_LR_15 GLN_UD_3" />
	<route id="1532" edges="LLN_DU_1 LLN_DU_2 CR30_LR_14 CR30_LR_15from14 CR30_LR_15 GLN_UD_3 GLN_UD_4" />
	<route id="1535" edges="LLN_DU_1 LLN_DU_2 CR30_RL_5 CR30_RL_6from5 CR30_RL_6" />
	<route id="154" edges="CR101_UD_1 CR101_UD_2 CR30_LR_3 CR30_LR_4 CR30_LR_5 CR30_LR_6 CR30_LR_7 CR30_LR_8 CR30_LR_9 CR30_LR_10from9 CR30_LR_10 CR30_LR_11 CR30_LR_12 CR30_LR_13" />
	<route id="1543" edges="LLN_DU_1 LLN_DU_2 CR30_RL_5 CR30_RL_6from5 CR30_RL_6 CR30_RL_7 CR30_RL_8 CR30_RL_9 CR30_RL_10 CR30_RL_11 CR30_RL_12 CR30_RL_13 CR30_RL_14" />
	<route id="1546" edges="LLN_DU_1 LLN_DU_2 CR30_RL_5 CR30_RL_6from5 CR30_RL_6 CR30_RL_7 CR30_RL_8 CR30_RL_9 CR30_RL_10 CR30_RL_11 CR30_RL_12 CR30_RL_13 CR30_RL_14 CR30_RL_15 CR30_RL_16" />
	<route id="155" edges="CR101_UD_1 CR101_UD_2 CR30_LR_3 CR30_LR_4 CR30_LR_5 CR30_LR_6 CR30_LR_7 CR30_LR_8 CR30_LR_9 CR30_LR_10from9 CR30_LR_10 CR30_LR_11 CR30_LR_12 CR30_LR_13 CR30_LR_14" />
	<route id="1556" edges="LLN_DU_1 LLN_DU_2 CR30_RL_5 CR30_RL_6from5 CR30_RL_6 CR30_RL_7 CR30_RL_8 CR30_RL_9 CR30_RL_10 gneE34 CR30_LR_7 CR30_LR_8 CR30_LR_9" />
	<route id="156" edges="CR101_UD_1 CR101_UD_2 CR30_LR_3 CR30_LR_4 CR30_LR_5 CR30_LR_6 CR30_LR_7 CR30_LR_8 CR30_LR_9 CR30_LR_10from9 CR30_LR_10 CR30_LR_11 CR30_LR_12 CR30_LR_13 CR30_LR_14 CR30_LR_15from14" />
	<route id="1561" edges="LLN_DU_1 LLN_DU_2 CR30_RL_5 CR30_RL_6from5 CR30_RL_6 CR30_RL_7 CR30_RL_8 CR30_RL_9 CR30_RL_10 gneE34 CR30_LR_7 CR30_LR_8 CR30_LR_9 CR30_LR_10from9 CR30_LR_10 CR30_LR_11 CR30_LR_12 CR30_LR_13" />
	<route id="1562" edges="LLN_DU_1 LLN_DU_2 CR30_RL_5 CR30_RL_6from5 CR30_RL_6 CR30_RL_7 CR30_RL_8 CR30_RL_9 CR30_RL_10 gneE34 CR30_LR_7 CR30_LR_8 CR30_LR_9 CR30_LR_10from9 CR30_LR_10 CR30_LR_11 CR30_LR_12 CR30_LR_13 LLN_UD_3" />
	<route id="1569" edges="LLN_DU_1 LLN_DU_2 CR30_RL_5 CR30_RL_6from5 CR30_RL_6 PLN_UD" />
	<route id="157" edges="CR101_UD_1 CR101_UD_2 CR30_LR_3 CR30_LR_4 CR30_LR_5 CR30_LR_6 CR30_LR_7 CR30_LR_8 CR30_LR_9 CR30_LR_10from9 CR30_LR_10 CR30_LR_11 CR30_LR_12 CR30_LR_13 CR30_LR_14 CR30_LR_15from14 CR30_LR_15" />
	<route id="1570" edges="LLN_DU_1 LLN_DU_2 LLN_DU_3" />
	<route id="1575" edges="LLN_DU_2 CR30_LR_14 CR30_LR_15from14 CR30_LR_15 CR30_LR_16" />
	<route id="158" edges="CR101_UD_1 CR101_UD_2 CR30_LR_3 CR30_LR_4 CR30_LR_5 CR30_LR_6 CR30_LR_7 CR30_LR_8 CR30_LR_9 CR30_LR_10from9 CR30_LR_10 CR30_LR_11 CR30_LR_12 CR30_LR_13 CR30_LR_14 CR30_LR_15from14 CR30_LR_15 CR30_LR_16" />
	<route id="159" edges="CR101_UD_1 CR101_UD_2 CR30_LR_3 CR30_LR_4 CR30_LR_5 CR30_LR_6 CR30_LR_7 CR30_LR_8 CR30_LR_9 CR30_LR_10from9 CR30_LR_10 CR30_LR_11 CR30_LR_12 CR30_LR_13 CR30_LR_14 CR30_LR_15from14 CR30_LR_15 GLN_DU_3" />
	<route id="1593" edges="LLN_DU_2 CR30_RL_5 CR30_RL_6from5 CR30_RL_6 CR30_RL_7 CR30_RL_8 CR30_RL_9 CR30_RL_10 CR30_RL_11 CR30_RL_12 CR30_RL_13 CR30_RL_14 CR30_RL_15 CR30_RL_16" />
	<route id="1594" edges="LLN_DU_2 CR30_RL_5 CR30_RL_6from5 CR30_RL_6 CR30_RL_7 CR30_RL_8 CR30_RL_9 CR30_RL_10 CR30_RL_11 CR30_RL_12 CR30_RL_13 CR30_RL_15R" />
	<route id="16" edges="CR101_DU_1 CR101_DU_2 CR101_DU_3R CR30_LR_4 CR30_LR_5 CR30_LR_6 CR30_LR_7 CR30_LR_8 CR30_LR_9 CR30_LR_10from9 CR30_LR_10 CR30_LR_11 CR30_LR_12 CR30_LR_13" />
	<route id="1609" edges="LLN_DU_2 CR30_RL_5 CR30_RL_6from5 CR30_RL_6 CR30_RL_7 CR30_RL_8 CR30_RL_9 CR30_RL_10 gneE34 CR30_LR_7 CR30_LR_8 CR30_LR_9 CR30_LR_10from9 CR30_LR_10 CR30_LR_11 CR30_LR_12 CR30_LR_13 LLN_UD_3" />
	<route id="161" edges="CR101_UD_1 CR101_UD_2 CR30_LR_3 CR30_LR_4 CR30_LR_5 CR30_LR_6 CR30_LR_7 CR30_LR_8 CR30_LR_9 CR30_LR_10from9 CR30_LR_10 CR30_LR_11 CR30_LR_12 CR30_LR_13 CR30_LR_14 CR30_LR_15from14 CR30_LR_15 GLN_UD_3" />
	<route id="1611" edges="LLN_DU_2 CR30_RL_5 CR30_RL_6from5 CR30_RL_6 CR30_RL_7 CR30_RL_8 CR30_RL_9 CR30_RL_10 gneE34 WCN_UD" />
	<route id="1619" edges="LLN_UD_1 LLN_UD_2 CR30_LR_14" />
	<route id="1620" edges="LLN_UD_1 LLN_UD_2 CR30_LR_14 CR30_LR_15from14" />
	<route id="1621" edges="LLN_UD_1 LLN_UD_2 CR30_LR_14 CR30_LR_15from14 CR30_LR_15" />
	<route id="1622" edges="LLN_UD_1 LLN_UD_2 CR30_LR_14 CR30_LR_15from14 CR30_LR_15 CR30_LR_16" />
	<route id="1623" edges="LLN_UD_1 LLN_UD_2 CR30_LR_14 CR30_LR_15from14 CR30_LR_15 GLN_DU_3" />
	<route id="1626" edges="LLN_UD_1 LLN_UD_2 CR30_LR_14 CR30_LR_15from14 CR30_LR_15 GLN_UD_3 GLN_UD_4" />
	<route id="165" edges="CR101_UD_1 CR101_UD_2 CR30_LR_3 CR30_LR_4 CR30_LR_5 CR30_LR_6 CR30_LR_7 CR30_LR_8 CR30_LR_9 CR30_LR_10from9 CR30_LR_10 CR30_LR_11 PLN_UD" />
	<route id="166" edges="CR101_UD_1 CR101_UD_2 CR30_LR_3 CR30_LR_4 CR30_LR_5 CR30_LR_6 CR30_LR_7 CR30_LR_8 CR30_LR_9 CR30_LR_10from9 QLN_UD" />
	<route id="1664" edges="LLN_UD_1 LLN_UD_2 LLN_UD_3" />
	<route id="1669" edges="LLN_UD_2 CR30_LR_14 CR30_LR_15from14 CR30_LR_15 CR30_LR_16" />
	<route id="1672" edges="LLN_UD_2 CR30_LR_14 CR30_LR_15from14 CR30_LR_15 GLN_UD_3" />
	<route id="1686" edges="LLN_UD_2 CR30_RL_5 CR30_RL_6from5 CR30_RL_6 CR30_RL_7 CR30_RL_8 CR30_RL_9 CR30_RL_10 CR30_RL_11 CR30_RL_12 CR30_RL_13 CR30_RL_14 CR30_RL_15 CR101_UD_3" />
	<route id="1687" edges="LLN_UD_2 CR30_RL_5 CR30_RL_6from5 CR30_RL_6 CR30_RL_7 CR30_RL_8 CR30_RL_9 CR30_RL_10 CR30_RL_11 CR30_RL_12 CR30_RL_13 CR30_RL_14 CR30_RL_15 CR30_RL_16" />
	<route id="1689" edges="LLN_UD_2 CR30_RL_5 CR30_RL_6from5 CR30_RL_6 CR30_RL_7 CR30_RL_8 CR30_RL_9 CR30_RL_10 CR30_RL_11 CR30_RL_12 CR30_RL_13 CR30_RL_15R CR101_DU_5" />
	<route id="1692" edges="LLN_UD_2 CR30_RL_5 CR30_RL_6from5 CR30_RL_6 CR30_RL_7 CR30_RL_8 CR30_RL_9 CR30_RL_10 CR30_RL_11 CR30_RL_12 gneE35 CR30_LR_5 CR30_LR_6" />
	<route id="1693" edges="LLN_UD_2 CR30_RL_5 CR30_RL_6from5 CR30_RL_6 CR30_RL_7 CR30_RL_8 CR30_RL_9 CR30_RL_10 CR30_RL_11 CR30_RL_12 gneE35 ZLN_UD" />
	<route id="17" edges="CR101_DU_1 CR101_DU_2 CR101_DU_3R CR30_LR_4 CR30_LR_5 CR30_LR_6 CR30_LR_7 CR30_LR_8 CR30_LR_9 CR30_LR_10from9 CR30_LR_10 CR30_LR_11 CR30_LR_12 CR30_LR_13 CR30_LR_14" />
	<route id="1714" edges="PLN_DU CR30_LR_12 CR30_LR_13 CR30_LR_14" />
	<route id="1715" edges="PLN_DU CR30_LR_12 CR30_LR_13 CR30_LR_14 CR30_LR_15from14" />
	<route id="1716" edges="PLN_DU CR30_LR_12 CR30_LR_13 CR30_LR_14 CR30_LR_15from14 CR30_LR_15" />
	<route id="1717" edges="PLN_DU CR30_LR_12 CR30_LR_13 CR30_LR_14 CR30_LR_15from14 CR30_LR_15 CR30_LR_16" />
	<route id="1722" edges="PLN_DU CR30_LR_12 CR30_LR_13 LLN_DU_3" />
	<route id="1733" edges="PLN_DU CR30_RL_7 CR30_RL_8 CR30_RL_9 CR30_RL_10 CR30_RL_11 CR30_RL_12 CR30_RL_13 CR30_RL_14 CR30_RL_15 CR101_UD_3" />
	<route id="1734" edges="PLN_DU CR30_RL_7 CR30_RL_8 CR30_RL_9 CR30_RL_10 CR30_RL_11 CR30_RL_12 CR30_RL_13 CR30_RL_14 CR30_RL_15 CR30_RL_16" />
	<route id="1736" edges="PLN_DU CR30_RL_7 CR30_RL_8 CR30_RL_9 CR30_RL_10 CR30_RL_11 CR30_RL_12 CR30_RL_13 CR30_RL_15R CR101_DU_5" />
	<route id="1737" edges="PLN_DU CR30_RL_7 CR30_RL_8 CR30_RL_9 CR30_RL_10 CR30_RL_11 CR30_RL_12 gneE35" />
	<route id="1738" edges="PLN_DU CR30_RL_7 CR30_RL_8 CR30_RL_9 CR30_RL_10 CR30_RL_11 CR30_RL_12 gneE35 CR30_LR_5" />
	<route id="1741" edges="PLN_DU CR30_RL_7 CR30_RL_8 CR30_RL_9 CR30_RL_10 gneE34" />
	<route id="1742" edges="PLN_DU CR30_RL_7 CR30_RL_8 CR30_RL_9 CR30_RL_10 gneE34 CR30_LR_7" />
	<route id="1747" edges="PLN_DU CR30_RL_7 CR30_RL_8 CR30_RL_9 CR30_RL_10 gneE34 CR30_LR_7 CR30_LR_8 CR30_LR_9 CR30_LR_10from9 CR30_LR_10 CR30_LR_11" />
	<route id="1759" edges="QLN_DU CR30_LR_10 CR30_LR_11 CR30_LR_12 CR30_LR_13 CR30_LR_14" />
	<route id="1760" edges="QLN_DU CR30_LR_10 CR30_LR_11 CR30_LR_12 CR30_LR_13 CR30_LR_14 CR30_LR_15from14" />
	<route id="1761" edges="QLN_DU CR30_LR_10 CR30_LR_11 CR30_LR_12 CR30_LR_13 CR30_LR_14 CR30_LR_15from14 CR30_LR_15" />
	<route id="1762" edges="QLN_DU CR30_LR_10 CR30_LR_11 CR30_LR_12 CR30_LR_13 CR30_LR_14 CR30_LR_15from14 CR30_LR_15 CR30_LR_16" />
	<route id="1774" edges="TLN_DU TLN_DU_2 TLN_UD_1 TLN_UD_2.1 TLN_UD_2 CR30_LR_9" />
	<route id="1775" edges="TLN_DU TLN_DU_2 TLN_UD_1 TLN_UD_2.1 TLN_UD_2 CR30_LR_9 CR30_LR_10from9" />
	<route id="1776" edges="TLN_DU TLN_DU_2 TLN_UD_1 TLN_UD_2.1 TLN_UD_2 CR30_LR_9 CR30_LR_10from9 CR30_LR_10" />
	<route id="1777" edges="TLN_DU TLN_DU_2 TLN_UD_1 TLN_UD_2.1 TLN_UD_2 CR30_LR_9 CR30_LR_10from9 CR30_LR_10 CR30_LR_11" />
	<route id="1778" edges="TLN_DU TLN_DU_2 TLN_UD_1 TLN_UD_2.1 TLN_UD_2 CR30_LR_9 CR30_LR_10from9 CR30_LR_10 CR30_LR_11 CR30_LR_12" />
	<route id="1779" edges="TLN_DU TLN_DU_2 TLN_UD_1 TLN_UD_2.1 TLN_UD_2 CR30_LR_9 CR30_LR_10from9 CR30_LR_10 CR30_LR_11 CR30_LR_12 CR30_LR_13" />
	<route id="1780" edges="TLN_DU TLN_DU_2 TLN_UD_1 TLN_UD_2.1 TLN_UD_2 CR30_LR_9 CR30_LR_10from9 CR30_LR_10 CR30_LR_11 CR30_LR_12 CR30_LR_13 CR30_LR_14" />
	<route id="1781" edges="TLN_DU TLN_DU_2 TLN_UD_1 TLN_UD_2.1 TLN_UD_2 CR30_LR_9 CR30_LR_10from9 CR30_LR_10 CR30_LR_11 CR30_LR_12 CR30_LR_13 CR30_LR_14 CR30_LR_15from14" />
	<route id="1782" edges="TLN_DU TLN_DU_2 TLN_UD_1 TLN_UD_2.1 TLN_UD_2 CR30_LR_9 CR30_LR_10from9 CR30_LR_10 CR30_LR_11 CR30_LR_12 CR30_LR_13 CR30_LR_14 CR30_LR_15from14 CR30_LR_15" />
	<route id="1784" edges="TLN_DU TLN_DU_2 TLN_UD_1 TLN_UD_2.1 TLN_UD_2 CR30_LR_9 CR30_LR_10from9 CR30_LR_10 CR30_LR_11 CR30_LR_12 CR30_LR_13 CR30_LR_14 CR30_LR_15from14 CR30_LR_15 GLN_DU_3" />
	<route id="1786" edges="TLN_DU TLN_DU_2 TLN_UD_1 TLN_UD_2.1 TLN_UD_2 CR30_LR_9 CR30_LR_10from9 CR30_LR_10 CR30_LR_11 CR30_LR_12 CR30_LR_13 CR30_LR_14 CR30_LR_15from14 CR30_LR_15 GLN_UD_3" />
	<route id="1788" edges="TLN_DU TLN_DU_2 TLN_UD_1 TLN_UD_2.1 TLN_UD_2 CR30_LR_9 CR30_LR_10from9 CR30_LR_10 CR30_LR_11 CR30_LR_12 CR30_LR_13 LLN_DU_3" />
	<route id="1790" edges="TLN_DU TLN_DU_2 TLN_UD_1 TLN_UD_2.1 TLN_UD_2 CR30_LR_9 CR30_LR_10from9 CR30_LR_10 CR30_LR_11 PLN_UD" />
	<route id="1791" edges="TLN_DU TLN_DU_2 TLN_UD_1 TLN_UD_2.1 TLN_UD_2 CR30_LR_9 CR30_LR_10from9 QLN_UD" />
	<route id="1813" edges="TLN_UD_1 TLN_UD_2.1 TLN_UD_2 CR30_LR_9" />
	<route id="1815" edges="TLN_UD_1 TLN_UD_2.1 TLN_UD_2 CR30_LR_9 CR30_LR_10from9 CR30_LR_10" />
	<route id="1816" edges="TLN_UD_1 TLN_UD_2.1 TLN_UD_2 CR30_LR_9 CR30_LR_10from9 CR30_LR_10 CR30_LR_11" />
	<route id="1817" edges="TLN_UD_1 TLN_UD_2.1 TLN_UD_2 CR30_LR_9 CR30_LR_10from9 CR30_LR_10 CR30_LR_11 CR30_LR_12" />
	<route id="1818" edges="TLN_UD_1 TLN_UD_2.1 TLN_UD_2 CR30_LR_9 CR30_LR_10from9 CR30_LR_10 CR30_LR_11 CR30_LR_12 CR30_LR_13" />
	<route id="1819" edges="TLN_UD_1 TLN_UD_2.1 TLN_UD_2 CR30_LR_9 CR30_LR_10from9 CR30_LR_10 CR30_LR_11 CR30_LR_12 CR30_LR_13 CR30_LR_14" />