<?xml version="1.0" encoding="UTF-8"?>

<!-- generated on 2025-03-26 02:34:36 by Eclipse SUMO netconvert Version 1.20.0
<configuration xmlns:xsi="http://www.w3.org/2001/XMLSchema-instance" xsi:noNamespaceSchemaLocation="http://sumo.dlr.de/xsd/netconvertConfiguration.xsd">

    <input>
        <sumo-net-file value="/Users/cavelab/Documents/Github/FRITS-Backup/net/i4_new.net.xml"/>
    </input>

    <output>
        <plain-output-prefix value="/Users/cavelab/Documents/Github/FRITS-Backup/net/i4_new_plain"/>
        <output.street-names value="true"/>
    </output>

    <processing>
        <geometry.min-radius.fix.railways value="false"/>
        <geometry.max-grade.fix value="false"/>
        <offset.disable-normalization value="true"/>
        <lefthand value="0"/>
    </processing>

    <junctions>
        <no-turnarounds value="true"/>
        <junctions.corner-detail value="5"/>
        <junctions.limit-turn-speed value="5.50"/>
        <rectangular-lane-cut value="0"/>
    </junctions>

    <pedestrian>
        <walkingareas value="0"/>
    </pedestrian>

</configuration>
-->

<edges version="1.20" xmlns:xsi="http://www.w3.org/2001/XMLSchema-instance" xsi:noNamespaceSchemaLocation="http://sumo.dlr.de/xsd/edges_file.xsd">
    <location netOffset="-450011.54,-4996025.65" convBoundary="8628.46,930.16,11243.17,2012.33" origBoundary="-93.635696,45.109217,-93.481704,45.152564" projParameter="+proj=utm +zone=15 +ellps=WGS84 +datum=WGS84 +units=m +no_defs"/>

    <edge id="CR101_DU_1" from="ncr101_du_1" to="ncr101_du_2" priority="-1" numLanes="1" speed="22.35" length="400.00"/>
    <edge id="CR101_DU_2" from="ncr101_du_2" to="ncr101_du_3" priority="-1" numLanes="2" speed="22.35" shape="8930.94,1518.79 8930.99,1522.38 8931.39,1581.37" spreadType="center" length="95.00"/>
    <edge id="CR101_DU_3" from="ncr101_du_3" to="i_cr30_101" priority="-1" numLanes="2" speed="22.35" shape="8931.39,1581.37 8932.09,1615.39" spreadType="center" length="26.00"/>
    <edge id="CR101_DU_3R" from="ncr101_du_3" to="ncr30_lr_3" priority="-1" numLanes="1" speed="22.35" shape="8931.39,1581.37 8934.46,1588.53 8937.46,1597.78 8940.23,1605.05 8943.50,1610.35 8947.17,1614.17 8952.02,1616.54 8959.24,1617.70"/>
    <edge id="CR101_DU_4" from="i_cr30_101" to="ncr101_du_4" priority="-1" numLanes="1" speed="22.35" shape="8931.08,1621.05 8931.61,1627.91 8931.92,1667.77 8932.54,1684.20" length="50.00"/>
    <edge id="CR101_DU_5" from="ncr101_du_4" to="ncr101_du_5" priority="-1" numLanes="1" speed="22.35" shape="8932.54,1684.20 8933.81,1753.52 8933.41,1912.28" length="450.00"/>
    <edge id="CR101_UD_1" from="ncr101_ud_1" to="ncr101_ud_2" priority="-1" numLanes="1" speed="22.35" length="400.00"/>
    <edge id="CR101_UD_2" from="ncr101_ud_2" to="i_cr30_101" priority="-1" numLanes="2" speed="22.35" shape="8927.62,1718.64 8927.15,1703.01 8927.43,1627.78" spreadType="center" length="100.00"/>
    <edge id="CR101_UD_3" from="i_cr30_101" to="ncr101_ud_3" priority="-1" numLanes="1" speed="22.35" shape="8931.08,1621.05 8927.70,1615.23 8925.87,1326.31" length="500.00"/>
    <edge id="CR30_LR_1" from="ncr30_lr_1" to="ncr30_lr_2" priority="-1" numLanes="1" speed="22.35" length="400.00"/>
    <edge id="CR30_LR_10" from="ncr30_lr_8" to="ncr30_lr_9" name="County Road 30" priority="11" type="highway.secondary" numLanes="2" speed="22.35" spreadType="center" disallow="tram rail_urban rail rail_electric rail_fast ship cable_car subway">
        <lane index="0">
            <param key="origId" value="6033582"/>
        </lane>
        <lane index="1">
            <param key="origId" value="6033582"/>
        </lane>
        <param key="origTo" value="33419392"/>
        <param key="ref" value="CR 30"/>
    </edge>
    <edge id="CR30_LR_10from9" from="gneJ1" to="ncr30_lr_8" name="County Road 30" priority="11" type="highway.secondary" numLanes="2" speed="22.35" shape="9790.66,1604.97 9802.97,1602.97 9826.84,1595.34 9852.08,1584.49 9874.89,1572.99 9886.19,1566.15 9922.68,1544.07 9970.11,1514.36" spreadType="center" length="170.00" disallow="tram rail_urban rail rail_electric rail_fast ship cable_car subway">
        <lane index="0">
            <param key="origId" value="6033582"/>
        </lane>
        <lane index="1">
            <param key="origId" value="6033582"/>
        </lane>
        <param key="origFrom" value="34513021"/>
        <param key="ref" value="CR 30"/>
    </edge>
    <edge id="CR30_LR_11" from="ncr30_lr_9" to="i_cr30_pln" name="County Road 30" priority="11" type="highway.secondary" numLanes="3" speed="22.35" shape="10025.14,1479.41 10114.79,1423.34" spreadType="center" length="100.00" disallow="tram rail_urban rail rail_electric rail_fast ship cable_car subway">
        <lane index="0">
            <param key="origId" value="6033582"/>
        </lane>
        <lane index="1">
            <param key="origId" value="6033582"/>
        </lane>
        <lane index="2">
            <param key="origId" value="6033582"/>
        </lane>
        <param key="origTo" value="33419392"/>
        <param key="ref" value="CR 30"/>
    </edge>
    <edge id="CR30_LR_12" from="i_cr30_pln" to="ncr30_lr_10" name="County Road 30" priority="11" type="highway.secondary" numLanes="2" speed="22.35" shape="10118.48,1423.17 10124.45,1419.56 10166.53,1394.61 10238.89,1350.42 10395.17,1256.59" spreadType="center" length="305.27" disallow="tram rail_urban rail rail_electric rail_fast ship cable_car subway">
        <lane index="0">
            <param key="origId" value="756857198"/>
        </lane>
        <lane index="1">
            <param key="origId" value="756857198"/>
        </lane>
        <param key="origFrom" value="33419392"/>
        <param key="origTo" value="33419391"/>
        <param key="ref" value="CR 30"/>
    </edge>
    <edge id="CR30_LR_13" from="ncr30_lr_10" to="i_cr30_lln" name="County Road 30" priority="11" type="highway.secondary" numLanes="4" speed="22.35" shape="10395.17,1256.59 10417.25,1241.50 10449.37,1221.05 10485.81,1197.84" spreadType="center" length="100.00" disallow="tram rail_urban rail rail_electric rail_fast ship cable_car subway">
        <lane index="0">
            <param key="origId" value="756857198"/>
        </lane>
        <lane index="1">
            <param key="origId" value="756857198"/>
        </lane>
        <lane index="2">
            <param key="origId" value="756857198"/>
        </lane>
        <lane index="3">
            <param key="origId" value="756857198"/>
        </lane>
        <param key="origFrom" value="33419392"/>
        <param key="origTo" value="33419391"/>
        <param key="ref" value="CR 30"/>
    </edge>
    <edge id="CR30_LR_14" from="i_cr30_lln" to="gneJ4" name="County Road 30" priority="11" type="highway.secondary" numLanes="2" speed="20.12" shape="10503.72,1190.95 10525.16,1180.18 10545.81,1171.43 10563.68,1163.61 10583.13,1157.54 10609.19,1150.70 10632.87,1146.13 10656.46,1143.97 10678.97,1142.54 10697.92,1142.53 10719.32,1144.24" spreadType="center" length="200.00" disallow="tram rail_urban rail rail_electric rail_fast ship cable_car subway">
        <lane index="0">
            <param key="origId" value="756857198"/>
        </lane>
        <lane index="1">
            <param key="origId" value="756857198"/>
        </lane>
        <param key="origFrom" value="33419391"/>
        <param key="origTo" value="2509818239"/>
        <param key="ref" value="CR 30"/>
    </edge>
    <edge id="CR30_LR_15" from="ncr30_lr_11" to="i_cr30_gln" name="County Road 30" priority="11" type="highway.secondary" numLanes="4" speed="20.12" shape="10890.81,1184.41 10897.37,1185.69 10920.97,1188.70 10939.96,1188.83 10969.65,1188.23 10997.62,1187.79 11011.21,1187.03" spreadType="center" length="100.00" disallow="tram rail_urban rail rail_electric rail_fast ship cable_car subway">
        <lane index="0">
            <param key="origId" value="756857198"/>
        </lane>
        <lane index="1">
            <param key="origId" value="756857198"/>
        </lane>
        <lane index="2">
            <param key="origId" value="756857198"/>
        </lane>
        <lane index="3">
            <param key="origId" value="756857198"/>
        </lane>
        <param key="origFrom" value="33419391"/>
        <param key="origTo" value="2509818239"/>
        <param key="ref" value="CR 30"/>
    </edge>
    <edge id="CR30_LR_15from14" from="gneJ4" to="ncr30_lr_11" name="County Road 30" priority="11" type="highway.secondary" numLanes="2" speed="20.12" shape="10719.32,1144.24 10739.65,1146.02 10751.89,1147.95 10759.15,1149.10 10788.93,1156.32 10818.91,1165.55 10837.24,1173.65 10842.49,1174.81 10859.17,1178.51 10866.61,1179.85 10877.46,1181.80 10884.75,1183.22 10890.81,1184.41" spreadType="center" length="250.00" disallow="tram rail_urban rail rail_electric rail_fast ship cable_car subway">
        <lane index="0">
            <param key="origId" value="756857198"/>
        </lane>
        <lane index="1">
            <param key="origId" value="756857198"/>
        </lane>
        <param key="origFrom" value="33419391"/>
        <param key="origTo" value="2509818239"/>
        <param key="ref" value="CR 30"/>
    </edge>
    <edge id="CR30_LR_16" from="i_cr30_gln" to="ncr30_lr_12" name="County Road 30" priority="11" type="highway.secondary" numLanes="2" speed="17.88" shape="11031.13,1186.99 11098.55,1186.02 11241.85,1182.74" spreadType="center" length="180.00" disallow="tram rail_urban rail rail_electric rail_fast ship cable_car subway">
        <lane index="0">
            <param key="origId" value="756857198"/>
        </lane>
        <lane index="1">
            <param key="origId" value="756857198"/>
        </lane>
        <param key="origFrom" value="34524032"/>
        <param key="ref" value="CR 30"/>
    </edge>
    <edge id="CR30_LR_2" from="ncr30_lr_2" to="i_cr30_101" priority="-1" numLanes="2" speed="22.35" shape="8844.18,1618.61 8924.39,1618.64" spreadType="center" length="100.00"/>
    <edge id="CR30_LR_3" from="i_cr30_101" to="ncr30_lr_3" priority="-1" numLanes="1" speed="22.35" shape="8936.45,1617.62 8959.24,1617.70" spreadType="center" length="25.00"/>
    <edge id="CR30_LR_4" from="ncr30_lr_3" to="ncr30_lr_4" priority="-1" numLanes="2" speed="22.35" shape="8959.24,1617.70 9119.17,1615.26 9126.30,1615.25" spreadType="center" length="165.00">
        <lane index="0" acceleration="1"/>
        <lane index="1"/>
    </edge>
    <edge id="CR30_LR_5" from="ncr30_lr_4" to="ncr30_lr_5" priority="-1" numLanes="2" speed="22.35" shape="9126.30,1615.25 9142.67,1614.71 9185.36,1614.11" spreadType="center" length="60.00"/>
    <edge id="CR30_LR_6" from="ncr30_lr_5" to="ncr30_lr_6" priority="-1" numLanes="3" speed="22.35" shape="9185.36,1614.11 9293.83,1614.28" spreadType="center" length="100.00"/>
    <edge id="CR30_LR_7" from="ncr30_lr_6" to="ncr30_lr_7" priority="-1" numLanes="2" speed="22.35" shape="9298.26,1614.96 9465.79,1615.12 9484.97,1615.47" spreadType="center" length="180.00"/>
    <edge id="CR30_LR_8" from="ncr30_lr_7" to="i_cr30_tln" name="County Road 30" priority="11" type="highway.secondary" numLanes="3" speed="22.35" shape="9484.97,1615.47 9510.40,1615.56 9584.65,1614.69" spreadType="center" length="100.00" disallow="tram rail_urban rail rail_electric rail_fast ship cable_car subway">
        <lane index="0">
            <param key="origId" value="6033582"/>
        </lane>
        <lane index="1">
            <param key="origId" value="6033582"/>
        </lane>
        <lane index="2">
            <param key="origId" value="6033582"/>
        </lane>
        <param key="origFrom" value="33419359"/>
        <param key="origTo" value="34513021"/>
        <param key="ref" value="CR 30"/>
    </edge>
    <edge id="CR30_LR_9" from="i_cr30_tln" to="gneJ1" name="County Road 30" priority="11" type="highway.secondary" numLanes="2" speed="22.35" shape="9592.83,1613.14 9688.87,1610.02 9726.36,1609.20 9750.95,1608.16 9778.19,1606.99 9790.66,1604.97" spreadType="center" length="224.00" disallow="tram rail_urban rail rail_electric rail_fast ship cable_car subway">
        <lane index="0">
            <param key="origId" value="6033582"/>
        </lane>
        <lane index="1">
            <param key="origId" value="6033582"/>
        </lane>
        <param key="origFrom" value="34513021"/>
        <param key="ref" value="CR 30"/>
    </edge>
    <edge id="CR30_RL_1" from="ncr30_rl_1" to="ncr30_rl_2" priority="-1" numLanes="2" speed="17.88" shape="11243.17,1195.58 11171.30,1196.73 11155.45,1197.43" spreadType="center"/>
    <edge id="CR30_RL_10" from="ncr30_rl_6" to="ncr30_rl_7" name="County Road 30" priority="11" type="highway.secondary" numLanes="3" speed="22.35" shape="9404.75,1623.19 9315.88,1623.15 9310.55,1623.28" spreadType="center" length="100.00" disallow="tram rail_urban rail rail_electric rail_fast ship cable_car subway">
        <lane index="0">
            <param key="origId" value="756857197"/>
        </lane>
        <lane index="1">
            <param key="origId" value="756857197"/>
        </lane>
        <lane index="2">
            <param key="origId" value="756857197"/>
        </lane>
        <param key="origFrom" value="2509818426"/>
        <param key="origTo" value="2509818428"/>
        <param key="ref" value="CR 30"/>
    </edge>
    <edge id="CR30_RL_11" from="ncr30_rl_7" to="ncr30_rl_8" name="County Road 30" priority="11" type="highway.secondary" numLanes="2" speed="22.35" shape="9310.55,1623.28 9306.65,1624.75 9246.46,1624.54" spreadType="center" length="80.00" disallow="tram rail_urban rail rail_electric rail_fast ship cable_car subway">
        <lane index="0">
            <param key="origId" value="756857197"/>
        </lane>
        <lane index="1">
            <param key="origId" value="756857197"/>
        </lane>
        <param key="origFrom" value="2509818426"/>
        <param key="origTo" value="2509818428"/>
        <param key="ref" value="CR 30"/>
    </edge>
    <edge id="CR30_RL_12" from="ncr30_rl_8" to="ncr30_rl_9" name="County Road 30" priority="11" type="highway.secondary" numLanes="3" speed="22.35" shape="9246.46,1624.54 9141.95,1626.61" spreadType="center" length="80.00" disallow="tram rail_urban rail rail_electric rail_fast ship cable_car subway">
        <lane index="0">
            <param key="origId" value="756857197"/>
        </lane>
        <lane index="1">
            <param key="origId" value="756857197"/>
        </lane>
        <lane index="2">
            <param key="origId" value="756857197"/>
        </lane>
        <param key="origFrom" value="2509818426"/>
        <param key="origTo" value="2509818428"/>
        <param key="ref" value="CR 30"/>
    </edge>
    <edge id="CR30_RL_13" from="ncr30_rl_9" to="ncr30_rl_11" name="County Road 30" priority="11" numLanes="2" speed="22.35" shape="9142.16,1626.68 9134.70,1626.58 9128.22,1626.71 9077.46,1626.98 9057.49,1626.67" spreadType="center" length="65.00">
        <lane index="0">
            <param key="origId" value="756857197"/>
        </lane>
        <lane index="1">
            <param key="origId" value="756857197"/>
        </lane>
        <param key="origFrom" value="2509818426"/>
        <param key="origTo" value="2509818428"/>
        <param key="ref" value="CR 30"/>
    </edge>
    <edge id="CR30_RL_14" from="ncr30_rl_11" to="gneJ9" priority="-1" numLanes="1" speed="22.35" shape="9057.49,1626.67 9037.48,1625.58 9011.87,1624.83" spreadType="center" length="50.00"/>
    <edge id="CR30_RL_15" from="gneJ9" to="i_cr30_101" priority="-1" numLanes="2" speed="22.35" shape="9011.87,1624.83 8965.18,1625.28 8936.02,1624.64" spreadType="center" length="85.00"/>
    <edge id="CR30_RL_15R" from="ncr30_rl_11" to="ncr101_du_4" priority="-1" numLanes="1" speed="22.35" shape="9057.49,1626.67 9040.29,1627.74 9032.40,1628.02 8963.07,1629.85 8955.88,1630.22 8948.20,1631.29 8942.43,1634.21 8938.48,1638.45 8936.59,1644.33 8935.82,1649.58 8935.44,1656.84 8935.20,1663.89 8932.54,1684.20"/>
    <edge id="CR30_RL_16" from="i_cr30_101" to="ncr30_rl_12" priority="-1" numLanes="1" speed="22.35" shape="8931.08,1621.05 8924.00,1623.21 8628.46,1623.96" length="500.00"/>
    <edge id="CR30_RL_2" from="ncr30_rl_2" to="i_cr30_gln" name="County Road 30" priority="11" type="highway.secondary" numLanes="4" speed="17.88" shape="11155.45,1197.43 11096.81,1198.91 11029.91,1199.45" spreadType="center" length="100.00" disallow="tram rail_urban rail rail_electric rail_fast ship cable_car subway">
        <lane index="0">
            <param key="origId" value="243595584"/>
        </lane>
        <lane index="1">
            <param key="origId" value="243595584"/>
        </lane>
        <lane index="2">
            <param key="origId" value="243595584"/>
        </lane>
        <lane index="3">
            <param key="origId" value="243595584"/>
        </lane>
        <param key="origTo" value="2509818281"/>
        <param key="ref" value="CR 30"/>
    </edge>
    <edge id="CR30_RL_3" from="i_cr30_gln" to="gneJ7" name="County Road 30" priority="11" type="highway.secondary" numLanes="2" speed="20.12" shape="11012.02,1201.39 10939.46,1203.40 10918.71,1202.61 10897.70,1200.61 10864.52,1194.41 10841.79,1188.35 10796.90,1173.41" spreadType="center" length="244.00" disallow="tram rail_urban rail rail_electric rail_fast ship cable_car subway">
        <lane index="0">
            <param key="origId" value="243595584"/>
        </lane>
        <lane index="1">
            <param key="origId" value="243595584"/>
        </lane>
        <param key="origFrom" value="2509818276"/>
        <param key="origTo" value="2509818291"/>
        <param key="ref" value="CR 30"/>
    </edge>
    <edge id="CR30_RL_4" from="ncr30_rl_3" to="i_cr30_lln" name="County Road 30" priority="11" type="highway.secondary" numLanes="4" speed="20.12" shape="10613.19,1162.47 10589.90,1168.11 10566.46,1174.98 10530.16,1190.26 10495.11,1208.07" spreadType="center" length="100.00" disallow="tram rail_urban rail rail_electric rail_fast ship cable_car subway">
        <lane index="0">
            <param key="origId" value="243595584"/>
        </lane>
        <lane index="1">
            <param key="origId" value="243595584"/>
        </lane>
        <lane index="2">
            <param key="origId" value="243595584"/>
        </lane>
        <lane index="3">
            <param key="origId" value="243595584"/>
        </lane>
        <param key="origFrom" value="2509818276"/>
        <param key="origTo" value="2509818291"/>
        <param key="ref" value="CR 30"/>
    </edge>
    <edge id="CR30_RL_4from3" from="gneJ7" to="ncr30_rl_3" name="County Road 30" priority="11" type="highway.secondary" numLanes="2" speed="20.12" shape="10796.90,1173.41 10765.31,1164.79 10721.48,1157.66 10694.33,1155.73 10668.64,1155.73 10646.17,1157.42 10616.81,1161.59 10613.19,1162.47" spreadType="center" length="200.00" disallow="tram rail_urban rail rail_electric rail_fast ship cable_car subway">
        <lane index="0">
            <param key="origId" value="243595584"/>
        </lane>
        <lane index="1">
            <param key="origId" value="243595584"/>
        </lane>
        <param key="origFrom" value="2509818276"/>
        <param key="origTo" value="2509818291"/>
        <param key="ref" value="CR 30"/>
    </edge>
    <edge id="CR30_RL_5" from="i_cr30_lln" to="gneJ2" name="County Road 30" priority="11" type="highway.secondary" numLanes="2" speed="22.35" shape="10495.27,1204.38 10475.28,1217.01 10460.22,1227.14 10384.58,1277.86 10336.61,1306.62 10305.79,1324.70" spreadType="center" length="224.00" disallow="tram rail_urban rail rail_electric rail_fast ship cable_car subway">
        <lane index="0">
            <param key="origId" value="760579296"/>
        </lane>
        <lane index="1">
            <param key="origId" value="760579296"/>
        </lane>
        <param key="origFrom" value="2509818291"/>
        <param key="origTo" value="7069009282"/>
        <param key="ref" value="CR 30"/>
    </edge>
    <edge id="CR30_RL_6" from="ncr30_rl_4" to="i_cr30_pln" name="County Road 30" priority="11" type="highway.secondary" numLanes="3" speed="22.35" shape="10219.68,1376.28 10119.64,1436.40" spreadType="center" length="100.00" disallow="tram rail_urban rail rail_electric rail_fast ship cable_car subway">
        <lane index="0">
            <param key="origId" value="760579296"/>
        </lane>
        <lane index="1">
            <param key="origId" value="760579296"/>
        </lane>
        <lane index="2">
            <param key="origId" value="760579296"/>
        </lane>
        <param key="origFrom" value="2509818291"/>
        <param key="origTo" value="7069009282"/>
        <param key="ref" value="CR 30"/>
    </edge>
    <edge id="CR30_RL_6from5" from="gneJ2" to="ncr30_rl_4" name="County Road 30" priority="11" type="highway.secondary" numLanes="2" speed="22.35" shape="10305.79,1324.70 10251.22,1356.71 10219.68,1376.28" spreadType="center" disallow="tram rail_urban rail rail_electric rail_fast ship cable_car subway">
        <lane index="0">
            <param key="origId" value="760579296"/>
        </lane>
        <lane index="1">
            <param key="origId" value="760579296"/>
        </lane>
        <param key="origFrom" value="2509818291"/>
        <param key="origTo" value="7069009282"/>
        <param key="ref" value="CR 30"/>
    </edge>
    <edge id="CR30_RL_7" from="i_cr30_pln" to="ncr30_rl_5" name="County Road 30" priority="11" type="highway.secondary" numLanes="2" speed="22.35" shape="10119.39,1438.16 9879.41,1585.43 9846.63,1601.23 9816.10,1612.71 9784.81,1618.81 9764.02,1620.19 9747.99,1620.48 9739.51,1620.67 9697.66,1622.44" spreadType="center" disallow="tram rail_urban rail rail_electric rail_fast ship cable_car subway">
        <lane index="0">
            <param key="origId" value="756857197"/>
        </lane>
        <lane index="1">
            <param key="origId" value="756857197"/>
        </lane>
        <param key="origFrom" value="7069009282"/>
        <param key="origTo" value="2509818426"/>
        <param key="ref" value="CR 30"/>
    </edge>
    <edge id="CR30_RL_8" from="ncr30_rl_5" to="i_cr30_tln" name="County Road 30" priority="11" type="highway.secondary" numLanes="3" speed="22.35" shape="9697.66,1622.44 9681.97,1623.25 9667.77,1623.41 9647.20,1623.78 9602.46,1624.69 9593.68,1624.57" spreadType="center" length="100.00" disallow="tram rail_urban rail rail_electric rail_fast ship cable_car subway">
        <lane index="0">
            <param key="origId" value="756857197"/>
        </lane>
        <lane index="1">
            <param key="origId" value="756857197"/>
        </lane>
        <lane index="2">
            <param key="origId" value="756857197"/>
        </lane>
        <param key="origFrom" value="7069009282"/>
        <param key="origTo" value="2509818426"/>
        <param key="ref" value="CR 30"/>
    </edge>
    <edge id="CR30_RL_9" from="i_cr30_tln" to="ncr30_rl_6" name="County Road 30" priority="11" type="highway.secondary" numLanes="2" speed="22.35" shape="9584.96,1623.57 9492.62,1624.62 9443.26,1623.96 9434.97,1624.14 9404.75,1623.19" spreadType="center" length="175.00" disallow="tram rail_urban rail rail_electric rail_fast ship cable_car subway">
        <lane index="0">
            <param key="origId" value="756857197"/>
        </lane>
        <lane index="1">
            <param key="origId" value="756857197"/>
        </lane>
        <param key="origFrom" value="2509818426"/>
        <param key="origTo" value="2509818428"/>
        <param key="ref" value="CR 30"/>
    </edge>
    <edge id="GLN_DU_1" from="ngln_du_1" to="ngln_du_2" name="Garland Lane North" priority="3" type="highway.residential" numLanes="2" speed="13.41" spreadType="center" disallow="tram rail_urban rail rail_electric rail_fast ship cable_car subway">
        <lane index="0">
            <param key="origId" value="243595604"/>
        </lane>
        <lane index="1">
            <param key="origId" value="243595604"/>
        </lane>
        <param key="origTo" value="34524032"/>
    </edge>
    <edge id="GLN_DU_2" from="ngln_du_2" to="i_cr30_gln" priority="-1" numLanes="3" speed="13.41" shape="11023.59,1076.21 11025.08,1176.34" spreadType="center" length="100.00"/>
    <edge id="GLN_DU_3" from="i_cr30_gln" to="gneJ6" name="Garland Lane North" priority="3" type="highway.residential" numLanes="1" speed="13.41" shape="11023.25,1208.41 11024.52,1356.67" spreadType="center" length="135.00" disallow="tram rail_urban rail rail_electric rail_fast ship cable_car subway">
        <lane index="0">
            <param key="origId" value="243595604"/>
        </lane>
        <param key="origFrom" value="2509818281"/>
    </edge>
    <edge id="GLN_DU_4" from="gneJ6" to="ngln_du_3" name="Garland Lane North" priority="3" type="highway.residential" numLanes="1" speed="13.41" spreadType="center" disallow="tram rail_urban rail rail_electric rail_fast ship cable_car subway">
        <lane index="0">
            <param key="origId" value="243595604"/>
        </lane>
        <param key="origFrom" value="2509818281"/>
    </edge>
    <edge id="GLN_UD_1" from="ngln_ud_1" to="ngln_ud_2" priority="-1" numLanes="2" speed="13.41" shape="11017.40,1452.62 11015.15,1313.78 11016.95,1309.82" spreadType="center"/>
    <edge id="GLN_UD_2" from="ngln_ud_2" to="i_cr30_gln" name="Garland Lane North" priority="3" type="highway.residential" numLanes="3" speed="13.41" shape="11016.95,1309.82 11016.53,1208.34" spreadType="center" length="100.00" disallow="tram rail_urban rail rail_electric rail_fast ship cable_car subway">
        <lane index="0">
            <param key="origId" value="243595607"/>
        </lane>
        <lane index="1">
            <param key="origId" value="243595607"/>
        </lane>
        <lane index="2">
            <param key="origId" value="243595607"/>
        </lane>
        <param key="origTo" value="2509818276"/>
    </edge>
    <edge id="GLN_UD_3" from="i_cr30_gln" to="gneJ5" name="Garland Lane North" priority="3" type="highway.residential" numLanes="2" speed="13.41" shape="11016.28,1182.78 11014.76,1055.67" spreadType="center" length="135.00" disallow="tram rail_urban rail rail_electric rail_fast ship cable_car subway">
        <lane index="0">
            <param key="origId" value="243595607"/>
        </lane>
        <lane index="1">
            <param key="origId" value="243595607"/>
        </lane>
        <param key="origFrom" value="2509818239"/>
    </edge>
    <edge id="GLN_UD_4" from="gneJ5" to="ngln_ud_3" name="Garland Lane North" priority="3" type="highway.residential" numLanes="2" speed="13.41" spreadType="center" disallow="tram rail_urban rail rail_electric rail_fast ship cable_car subway">
        <lane index="0">
            <param key="origId" value="243595607"/>
        </lane>
        <lane index="1">
            <param key="origId" value="243595607"/>
        </lane>
        <param key="origFrom" value="2509818239"/>
    </edge>
    <edge id="LLN_DU_1" from="nlln_du_1" to="nlln_du_2" priority="-1" numLanes="1" speed="17.88"/>
    <edge id="LLN_DU_2" from="nlln_du_2" to="i_cr30_lln" priority="-1" numLanes="2" speed="17.88" shape="10495.49,1087.63 10496.47,1183.98" spreadType="center" length="100.00"/>
    <edge id="LLN_DU_3" from="i_cr30_lln" to="nlln_du_3" priority="-1" numLanes="1" speed="13.41" shape="10493.15,1201.98 10497.82,1289.71 10499.04,1357.87 10499.08,1469.25" length="224.00"/>
    <edge id="LLN_UD_1" from="nlln_ud_1" to="nlln_ud_2" priority="-1" numLanes="1" speed="13.41" shape="10497.87,1469.27 10497.27,1381.31 10496.99,1321.85 10494.11,1296.11"/>
    <edge id="LLN_UD_2" from="nlln_ud_2" to="i_cr30_lln" priority="-1" numLanes="2" speed="13.41" shape="10494.11,1296.11 10493.20,1276.89 10489.95,1202.03" spreadType="center" length="100.00"/>
    <edge id="LLN_UD_3" from="i_cr30_lln" to="nlln_ud_3" priority="-1" numLanes="1" speed="17.88" shape="10493.15,1201.98 10490.71,1134.08 10490.26,952.57" length="224.00"/>
    <edge id="PLN_DU" from="npln" to="i_cr30_pln" name="Peony Lane North" priority="3" type="highway.residential" numLanes="1" speed="13.41" shape="10061.32,1344.34 10069.78,1351.84 10076.44,1360.68 10084.39,1373.65 10104.27,1407.46 10109.77,1417.21 10114.79,1423.34" disallow="tram rail_urban rail rail_electric rail_fast ship cable_car subway">
        <lane index="0">
            <param key="origId" value="6023364"/>
        </lane>
        <param key="origTo" value="33419392"/>
    </edge>
    <edge id="PLN_UD" from="i_cr30_pln" to="npln" name="Peony Lane North" priority="-1" type="highway.residential" numLanes="1" speed="27.00" shape="10114.79,1423.34 10109.85,1417.55 10104.27,1407.46 10084.39,1373.65 10076.44,1360.68 10069.78,1351.84 10061.32,1344.34" disallow="tram rail_urban rail rail_electric rail_fast ship cable_car subway">
        <lane index="0">
            <param key="origId" value="6023364"/>
        </lane>
        <param key="origFrom" value="33419392"/>
    </edge>
    <edge id="QLN_DU" from="nqln" to="ncr30_lr_8" name="Queensland Lane North" priority="3" type="highway.residential" numLanes="1" speed="13.41" shape="9934.22,1454.90 9937.42,1460.19 9956.95,1492.56 9966.01,1507.57 9970.11,1514.36" disallow="tram rail_urban rail rail_electric rail_fast ship cable_car subway">
        <lane index="0">
            <param key="origId" value="6029280"/>
        </lane>
    </edge>
    <edge id="QLN_UD" from="ncr30_lr_8" to="nqln" name="Queensland Lane North" priority="-1" type="highway.residential" numLanes="1" speed="27.00" shape="9970.11,1514.36 9966.01,1507.57 9956.95,1492.56 9937.42,1460.19 9934.22,1454.90" disallow="tram rail_urban rail rail_electric rail_fast ship cable_car subway">
        <lane index="0">
            <param key="origId" value="6029280"/>
        </lane>
    </edge>